version 2
run General-0-20210119-01:45:30-19824
attr configname General
attr datetime 20210119-01:45:30
attr experiment General
attr inifile omnetpp-herald-epidemic.ini
attr iterationvars ""
attr iterationvarsf ""
attr measurement ""
attr network OPSHeraldNetwork
attr processid 19824
attr repetition 0
attr replication #0
attr resultdir results/
attr runnumber 0
attr seedset 0
param **.numNodes 54
param **.app.dataGenerationInterval 1s
param **.app.dataSizeInBytes 10000
param **.app.popularityAssignmentPercentage 25
param **.app.usedRNG 1
param **.app.mode 0
param **.forwardingLayer "\"KEpidemicRoutingLayer\""
param **.forwarding.maximumCacheSize 100000000byte
param **.forwarding.antiEntropyInterval 300s
param **.forwarding.maximumHopCount 25
param **.forwarding.usedRNG 3
param **.link.wirelessRange 30m
param **.link.neighbourScanInterval 1s
param **.link.bandwidthBitRate 100000bps
param **.link.wirelessHeaderSize 16byte
param **.link.usedRNG 4
param **.mobilityType "\"BonnMotionMobility\""
param **.mobility.traceFile "\"all_traces.gpx.movements\""
param **.mobility.nodeId -1

scalar OPSHeraldNetwork.host[0].forwarding numEventsHandled 89368
scalar OPSHeraldNetwork.host[0] linkSimpleNeighbourSize:mean 0.42793650793651
attr source linkSimpleNeighSize
attr title "Simple Neighbour Size, mean"
scalar OPSHeraldNetwork.host[0] linkContactCount:last 32
attr source sum(linkContactCount)
attr title "Contact Count, last"
scalar OPSHeraldNetwork.host[0] linkAvgContactDuration:last 2248.3125
attr source sum(linkContactDuration)/sum(linkContactDurationCount)
attr title "Average Contact Duration, last"
attr unit s
scalar OPSHeraldNetwork.host[0] linkAvgNeighbourSize:last 0.42793650793651
attr source sum(linkNeighSize)/sum(linkNeighSizeCount)
attr title "Average Neighbour Size, last"
scalar OPSHeraldNetwork.host[0] fwdTotalBytesSent:last 27361091
attr source sum(fwdTotalBytesSent)
attr title "Total Sent, last"
attr unit byte
scalar OPSHeraldNetwork.host[0] fwdDPTableDataBytesSent:last -nan
attr source sum(fwdDPTableDataBytesSent)
attr title "DP Table Data Sent, last"
attr unit byte
scalar OPSHeraldNetwork.host[0] fwdDPTableRequestBytesSent:last -nan
attr source sum(fwdDPTableRequestBytesSent)
attr title "DP Table Requests Sent, last"
attr unit byte
scalar OPSHeraldNetwork.host[0] fwdDataReqBytesSent:last 26444
attr source sum(fwdDataReqBytesSent)
attr title "Data Requests Sent, last"
attr unit byte
scalar OPSHeraldNetwork.host[0] fwdSumVecBytesSent:last 1991496
attr source sum(fwdSumVecBytesSent)
attr title "Summary Vectors Sent, last"
attr unit byte
scalar OPSHeraldNetwork.host[0] fwdDataBytesSent:last 25343151
attr source sum(fwdDataBytesSent)
attr title "Data Sent, last"
attr unit byte
scalar OPSHeraldNetwork.host[0] fwdCurrentCacheSizeBytes2:last 24346086
attr source fwdCurrentCacheSizeBytes2
attr title "Cache Size, last"
attr unit byte
scalar OPSHeraldNetwork.host[0] fwdCurrentCacheSizeBytes2:mean 13102373.224673
attr source fwdCurrentCacheSizeBytes2
attr title "Cache Size, mean"
attr unit byte
scalar OPSHeraldNetwork.host[0] fwdCurrentCacheSizeBytesPeriodic:last 24346086
attr source fwdCurrentCacheSizeBytesPeriodic
attr title "Periodic Cache Size, last"
attr unit byte
scalar OPSHeraldNetwork.host[0] fwdCurrentCacheSizeBytesPeriodic:mean 8619636.8680556
attr source fwdCurrentCacheSizeBytesPeriodic
attr title "Periodic Cache Size, mean"
attr unit byte
scalar OPSHeraldNetwork.host[0] fwdCurrentCacheSizeBytesAvg:last 13102373.224673
attr source sum(fwdCurrentCacheSizeBytes)/sum(fwdCurrentCacheSizeReportedCount)
attr title "Average Cache Size, last"
attr unit byte
scalar OPSHeraldNetwork.host[0] fwdCacheBytesUpdated:last 7416291
attr source sum(fwdCacheBytesUpdated)
attr title "Cache Updates, last"
attr unit byte
scalar OPSHeraldNetwork.host[0] fwdCacheBytesAdded:last 24346086
attr source sum(fwdCacheBytesAdded)
attr title "Cache Additions, last"
attr unit byte
scalar OPSHeraldNetwork.host[0] fwdCacheBytesRemoved:last -nan
attr source sum(fwdCacheBytesRemoved)
attr title "Cache Removals, last"
attr unit byte
scalar OPSHeraldNetwork.host[0] fwdAvgHopsTravelled:last 3.7760067114094
attr source sum(fwdHopsTravelled)/sum(fwdHopsTravelledCount)
attr title "Average Hops Travelled, last"
scalar OPSHeraldNetwork.host[0] fwdTotalBytesReceived:last 32447862
attr source sum(fwdTotalBytesReceived)
attr title "Total Received, last"
attr unit byte
scalar OPSHeraldNetwork.host[0] fwdDPTableDataBytesReceived:last -nan
attr source sum(fwdDPTableDataBytesReceived)
attr title "DP Table Data Received, last"
attr unit byte
scalar OPSHeraldNetwork.host[0] fwdDPTableRequestBytesReceived:last -nan
attr source sum(fwdDPTableRequestBytesReceived)
attr title "DP Table Requests Received, last"
attr unit byte
scalar OPSHeraldNetwork.host[0] fwdDataReqBytesReceived:last 8784
attr source sum(fwdDataReqBytesReceived)
attr title "Data Requests Received, last"
attr unit byte
scalar OPSHeraldNetwork.host[0] fwdSumVecBytesReceived:last 1442204
attr source sum(fwdSumVecBytesReceived)
attr title "Summary Vectors Received, last"
attr unit byte
scalar OPSHeraldNetwork.host[0] fwdDataBytesReceived:last 30996874
attr source sum(fwdDataBytesReceived)
attr title "Data Received, last"
attr unit byte
scalar OPSHeraldNetwork.host[0] appTotalDataCountReceived2:last 924
attr source sum(appTotalDataCountReceived2)
scalar OPSHeraldNetwork.host[0] appTotalDataBytesReceived2:last 23550783
attr source sum(appTotalDataBytesReceived2)
scalar OPSHeraldNetwork.host[0] appTotalDataReceivedDelay2:mean 133541.75694563
attr source appTotalDataReceivedDelay2
scalar OPSHeraldNetwork.host[0] appNonLikedDataReceivedDelay2:mean 132700.32524425
attr source appNonLikedDataReceivedDelay2
scalar OPSHeraldNetwork.host[0] appLikedDataReceivedDelay2:mean 135980.8437762
attr source appLikedDataReceivedDelay2
scalar OPSHeraldNetwork.host[0] appTotalDataAvgHopCount:last 4.1255411255411
attr source sum(appTotalDataHopsForAvgHopsComp)/sum(appTotalDataHopsCountForAvgHopsComp)
scalar OPSHeraldNetwork.host[0] appNonLikedDataAvgHopCount:last 4.1644832605531
attr source sum(appNonLikedDataHopsForAvgHopsComp)/sum(appNonLikedDataHopsCountForAvgHopsComp)
scalar OPSHeraldNetwork.host[0] appLikedDataAvgHopCount:last 4.0126582278481
attr source sum(appLikedDataHopsForAvgHopsComp)/sum(appLikedDataHopsCountForAvgHopsComp)
scalar OPSHeraldNetwork.host[0] appTotalDataDeliveryRatio:last 0.54130052724077
attr source sum(appTotalDataCountReceivedForRatioComp)/sum(appTotalDataCountMaxReceivableForRatioComp)
scalar OPSHeraldNetwork.host[0] appNonLikedDataDeliveryRatio:last 0.54094488188976
attr source sum(appNonLikedDataCountReceivedForRatioComp)/sum(appNonLikedDataCountMaxReceivableForRatioComp)
scalar OPSHeraldNetwork.host[0] appLikedDataDeliveryRatio:last 0.54233409610984
attr source sum(appLikedDataCountReceivedForRatioComp)/sum(appLikedDataCountMaxReceivableForRatioComp)
scalar OPSHeraldNetwork.host[0] appTotalDataReceivedAvgDelay:last 133541.75694563
attr source sum(appTotalDataReceivedDelay)/sum(appTotalDataCountReceivedForAvgDelayComp)
scalar OPSHeraldNetwork.host[0] appNonLikedDataReceivedAvgDelay:last 132700.32524425
attr source sum(appNonLikedDataReceivedDelay)/sum(appNonLikedDataCountReceivedForAvgDelayComp)
scalar OPSHeraldNetwork.host[0] appLikedDataReceivedAvgDelay:last 135980.8437762
attr source sum(appLikedDataReceivedDelay)/sum(appLikedDataCountReceivedForAvgDelayComp)
scalar OPSHeraldNetwork.host[0] appTotalDataCountMaxReceivable:last 1707
attr source sum(appTotalDataCountMaxReceivable)
scalar OPSHeraldNetwork.host[0] appNonLikedDataCountMaxReceivable:last 1270
attr source sum(appNonLikedDataCountMaxReceivable)
scalar OPSHeraldNetwork.host[0] appLikedDataCountMaxReceivable:last 437
attr source sum(appLikedDataCountMaxReceivable)
scalar OPSHeraldNetwork.host[0] appTotalDataBytesMaxReceivable:last 43388353
attr source sum(appTotalDataBytesMaxReceivable)
scalar OPSHeraldNetwork.host[0] appNonLikedDataBytesMaxReceivable:last 32176570
attr source sum(appNonLikedDataBytesMaxReceivable)
scalar OPSHeraldNetwork.host[0] appLikedDataBytesMaxReceivable:last 11211783
attr source sum(appLikedDataBytesMaxReceivable)
scalar OPSHeraldNetwork.host[0] appTotalDataCountReceived:last 1192
attr source sum(appTotalDataCountReceived)
scalar OPSHeraldNetwork.host[0] appDuplicateDataCountReceived:last 268
attr source sum(appDuplicateDataCountReceived)
scalar OPSHeraldNetwork.host[0] appNonLikedDataCountReceived:last 687
attr source sum(appNonLikedDataCountReceived)
scalar OPSHeraldNetwork.host[0] appLikedDataCountReceived:last 237
attr source sum(appLikedDataCountReceived)
scalar OPSHeraldNetwork.host[0] appTotalDataBytesReceived:last 30967074
attr source sum(appTotalDataBytesReceived)
scalar OPSHeraldNetwork.host[0] appDuplicateDataBytesReceived:last 7416291
attr source sum(appDuplicateDataBytesReceived)
scalar OPSHeraldNetwork.host[0] appNonLikedDataBytesReceived:last 17641611
attr source sum(appNonLikedDataBytesReceived)
scalar OPSHeraldNetwork.host[0] appLikedDataBytesReceived:last 5909172
attr source sum(appLikedDataBytesReceived)
scalar OPSHeraldNetwork.host[1].forwarding numEventsHandled 90765
scalar OPSHeraldNetwork.host[1] linkSimpleNeighbourSize:mean 0.45434358465608
attr source linkSimpleNeighSize
attr title "Simple Neighbour Size, mean"
scalar OPSHeraldNetwork.host[1] linkContactCount:last 21
attr source sum(linkContactCount)
attr title "Contact Count, last"
scalar OPSHeraldNetwork.host[1] linkAvgContactDuration:last 3753.6666666667
attr source sum(linkContactDuration)/sum(linkContactDurationCount)
attr title "Average Contact Duration, last"
attr unit s
scalar OPSHeraldNetwork.host[1] linkAvgNeighbourSize:last 0.45434358465608
attr source sum(linkNeighSize)/sum(linkNeighSizeCount)
attr title "Average Neighbour Size, last"
scalar OPSHeraldNetwork.host[1] fwdTotalBytesSent:last 74537904
attr source sum(fwdTotalBytesSent)
attr title "Total Sent, last"
attr unit byte
scalar OPSHeraldNetwork.host[1] fwdDPTableDataBytesSent:last -nan
attr source sum(fwdDPTableDataBytesSent)
attr title "DP Table Data Sent, last"
attr unit byte
scalar OPSHeraldNetwork.host[1] fwdDPTableRequestBytesSent:last -nan
attr source sum(fwdDPTableRequestBytesSent)
attr title "DP Table Requests Sent, last"
attr unit byte
scalar OPSHeraldNetwork.host[1] fwdDataReqBytesSent:last 100428
attr source sum(fwdDataReqBytesSent)
attr title "Data Requests Sent, last"
attr unit byte
scalar OPSHeraldNetwork.host[1] fwdSumVecBytesSent:last 2030000
attr source sum(fwdSumVecBytesSent)
attr title "Summary Vectors Sent, last"
attr unit byte
scalar OPSHeraldNetwork.host[1] fwdDataBytesSent:last 72407476
attr source sum(fwdDataBytesSent)
attr title "Data Sent, last"
attr unit byte
scalar OPSHeraldNetwork.host[1] fwdCurrentCacheSizeBytes2:last 24370866
attr source fwdCurrentCacheSizeBytes2
attr title "Cache Size, last"
attr unit byte
scalar OPSHeraldNetwork.host[1] fwdCurrentCacheSizeBytes2:mean 12007675.171147
attr source fwdCurrentCacheSizeBytes2
attr title "Cache Size, mean"
attr unit byte
scalar OPSHeraldNetwork.host[1] fwdCurrentCacheSizeBytesPeriodic:last 24370866
attr source fwdCurrentCacheSizeBytesPeriodic
attr title "Periodic Cache Size, last"
attr unit byte
scalar OPSHeraldNetwork.host[1] fwdCurrentCacheSizeBytesPeriodic:mean 9271206.0135582
attr source fwdCurrentCacheSizeBytesPeriodic
attr title "Periodic Cache Size, mean"
attr unit byte
scalar OPSHeraldNetwork.host[1] fwdCurrentCacheSizeBytesAvg:last 12007675.171147
attr source sum(fwdCurrentCacheSizeBytes)/sum(fwdCurrentCacheSizeReportedCount)
attr title "Average Cache Size, last"
attr unit byte
scalar OPSHeraldNetwork.host[1] fwdCacheBytesUpdated:last 3885256
attr source sum(fwdCacheBytesUpdated)
attr title "Cache Updates, last"
attr unit byte
scalar OPSHeraldNetwork.host[1] fwdCacheBytesAdded:last 24370866
attr source sum(fwdCacheBytesAdded)
attr title "Cache Additions, last"
attr unit byte
scalar OPSHeraldNetwork.host[1] fwdCacheBytesRemoved:last -nan
attr source sum(fwdCacheBytesRemoved)
attr title "Cache Removals, last"
attr unit byte
scalar OPSHeraldNetwork.host[1] fwdAvgHopsTravelled:last 3.409972299169
attr source sum(fwdHopsTravelled)/sum(fwdHopsTravelledCount)
attr title "Average Hops Travelled, last"
scalar OPSHeraldNetwork.host[1] fwdTotalBytesReceived:last 31827135
attr source sum(fwdTotalBytesReceived)
attr title "Total Received, last"
attr unit byte
scalar OPSHeraldNetwork.host[1] fwdDPTableDataBytesReceived:last -nan
attr source sum(fwdDPTableDataBytesReceived)
attr title "DP Table Data Received, last"
attr unit byte
scalar OPSHeraldNetwork.host[1] fwdDPTableRequestBytesReceived:last -nan
attr source sum(fwdDPTableRequestBytesReceived)
attr title "DP Table Requests Received, last"
attr unit byte
scalar OPSHeraldNetwork.host[1] fwdDataReqBytesReceived:last 16660
attr source sum(fwdDataReqBytesReceived)
attr title "Data Requests Received, last"
attr unit byte
scalar OPSHeraldNetwork.host[1] fwdSumVecBytesReceived:last 4278624
attr source sum(fwdSumVecBytesReceived)
attr title "Summary Vectors Received, last"
attr unit byte
scalar OPSHeraldNetwork.host[1] fwdDataBytesReceived:last 27531851
attr source sum(fwdDataBytesReceived)
attr title "Data Received, last"
attr unit byte
scalar OPSHeraldNetwork.host[1] appTotalDataCountReceived2:last 924
attr source sum(appTotalDataCountReceived2)
scalar OPSHeraldNetwork.host[1] appTotalDataBytesReceived2:last 23619520
attr source sum(appTotalDataBytesReceived2)
scalar OPSHeraldNetwork.host[1] appTotalDataReceivedDelay2:mean 115477.24577481
attr source appTotalDataReceivedDelay2
scalar OPSHeraldNetwork.host[1] appNonLikedDataReceivedDelay2:mean 114975.04250836
attr source appNonLikedDataReceivedDelay2
scalar OPSHeraldNetwork.host[1] appLikedDataReceivedDelay2:mean 116966.61254352
attr source appLikedDataReceivedDelay2
scalar OPSHeraldNetwork.host[1] appTotalDataAvgHopCount:last 3.534632034632
attr source sum(appTotalDataHopsForAvgHopsComp)/sum(appTotalDataHopsCountForAvgHopsComp)
scalar OPSHeraldNetwork.host[1] appNonLikedDataAvgHopCount:last 3.5528219971056
attr source sum(appNonLikedDataHopsForAvgHopsComp)/sum(appNonLikedDataHopsCountForAvgHopsComp)
scalar OPSHeraldNetwork.host[1] appLikedDataAvgHopCount:last 3.480686695279
attr source sum(appLikedDataHopsForAvgHopsComp)/sum(appLikedDataHopsCountForAvgHopsComp)
scalar OPSHeraldNetwork.host[1] appTotalDataDeliveryRatio:last 0.54161781946073
attr source sum(appTotalDataCountReceivedForRatioComp)/sum(appTotalDataCountMaxReceivableForRatioComp)
scalar OPSHeraldNetwork.host[1] appNonLikedDataDeliveryRatio:last 0.54238618524333
attr source sum(appNonLikedDataCountReceivedForRatioComp)/sum(appNonLikedDataCountMaxReceivableForRatioComp)
scalar OPSHeraldNetwork.host[1] appLikedDataDeliveryRatio:last 0.53935185185185
attr source sum(appLikedDataCountReceivedForRatioComp)/sum(appLikedDataCountMaxReceivableForRatioComp)
scalar OPSHeraldNetwork.host[1] appTotalDataReceivedAvgDelay:last 115477.24577481
attr source sum(appTotalDataReceivedDelay)/sum(appTotalDataCountReceivedForAvgDelayComp)
scalar OPSHeraldNetwork.host[1] appNonLikedDataReceivedAvgDelay:last 114975.04250836
attr source sum(appNonLikedDataReceivedDelay)/sum(appNonLikedDataCountReceivedForAvgDelayComp)
scalar OPSHeraldNetwork.host[1] appLikedDataReceivedAvgDelay:last 116966.61254352
attr source sum(appLikedDataReceivedDelay)/sum(appLikedDataCountReceivedForAvgDelayComp)
scalar OPSHeraldNetwork.host[1] appTotalDataCountMaxReceivable:last 1706
attr source sum(appTotalDataCountMaxReceivable)
scalar OPSHeraldNetwork.host[1] appNonLikedDataCountMaxReceivable:last 1274
attr source sum(appNonLikedDataCountMaxReceivable)
scalar OPSHeraldNetwork.host[1] appLikedDataCountMaxReceivable:last 432
attr source sum(appLikedDataCountMaxReceivable)
scalar OPSHeraldNetwork.host[1] appTotalDataBytesMaxReceivable:last 43432310
attr source sum(appTotalDataBytesMaxReceivable)
scalar OPSHeraldNetwork.host[1] appNonLikedDataBytesMaxReceivable:last 32352768
attr source sum(appNonLikedDataBytesMaxReceivable)
scalar OPSHeraldNetwork.host[1] appLikedDataBytesMaxReceivable:last 11079542
attr source sum(appLikedDataBytesMaxReceivable)
scalar OPSHeraldNetwork.host[1] appTotalDataCountReceived:last 1083
attr source sum(appTotalDataCountReceived)
scalar OPSHeraldNetwork.host[1] appDuplicateDataCountReceived:last 159
attr source sum(appDuplicateDataCountReceived)
scalar OPSHeraldNetwork.host[1] appNonLikedDataCountReceived:last 691
attr source sum(appNonLikedDataCountReceived)
scalar OPSHeraldNetwork.host[1] appLikedDataCountReceived:last 233
attr source sum(appLikedDataCountReceived)
scalar OPSHeraldNetwork.host[1] appTotalDataBytesReceived:last 27504776
attr source sum(appTotalDataBytesReceived)
scalar OPSHeraldNetwork.host[1] appDuplicateDataBytesReceived:last 3885256
attr source sum(appDuplicateDataBytesReceived)
scalar OPSHeraldNetwork.host[1] appNonLikedDataBytesReceived:last 17817809
attr source sum(appNonLikedDataBytesReceived)
scalar OPSHeraldNetwork.host[1] appLikedDataBytesReceived:last 5801711
attr source sum(appLikedDataBytesReceived)
scalar OPSHeraldNetwork.host[2].forwarding numEventsHandled 103104
scalar OPSHeraldNetwork.host[2] linkSimpleNeighbourSize:mean 0.51250165343915
attr source linkSimpleNeighSize
attr title "Simple Neighbour Size, mean"
scalar OPSHeraldNetwork.host[2] linkContactCount:last 26
attr source sum(linkContactCount)
attr title "Contact Count, last"
scalar OPSHeraldNetwork.host[2] linkAvgContactDuration:last 3542.2692307692
attr source sum(linkContactDuration)/sum(linkContactDurationCount)
attr title "Average Contact Duration, last"
attr unit s
scalar OPSHeraldNetwork.host[2] linkAvgNeighbourSize:last 0.51250165343915
attr source sum(linkNeighSize)/sum(linkNeighSizeCount)
attr title "Average Neighbour Size, last"
scalar OPSHeraldNetwork.host[2] fwdTotalBytesSent:last 42239115
attr source sum(fwdTotalBytesSent)
attr title "Total Sent, last"
attr unit byte
scalar OPSHeraldNetwork.host[2] fwdDPTableDataBytesSent:last -nan
attr source sum(fwdDPTableDataBytesSent)
attr title "DP Table Data Sent, last"
attr unit byte
scalar OPSHeraldNetwork.host[2] fwdDPTableRequestBytesSent:last -nan
attr source sum(fwdDPTableRequestBytesSent)
attr title "DP Table Requests Sent, last"
attr unit byte
scalar OPSHeraldNetwork.host[2] fwdDataReqBytesSent:last 38344
attr source sum(fwdDataReqBytesSent)
attr title "Data Requests Sent, last"
attr unit byte
scalar OPSHeraldNetwork.host[2] fwdSumVecBytesSent:last 2009216
attr source sum(fwdSumVecBytesSent)
attr title "Summary Vectors Sent, last"
attr unit byte
scalar OPSHeraldNetwork.host[2] fwdDataBytesSent:last 40191555
attr source sum(fwdDataBytesSent)
attr title "Data Sent, last"
attr unit byte
scalar OPSHeraldNetwork.host[2] fwdCurrentCacheSizeBytes2:last 24645494
attr source fwdCurrentCacheSizeBytes2
attr title "Cache Size, last"
attr unit byte
scalar OPSHeraldNetwork.host[2] fwdCurrentCacheSizeBytes2:mean 12144691.884191
attr source fwdCurrentCacheSizeBytes2
attr title "Cache Size, mean"
attr unit byte
scalar OPSHeraldNetwork.host[2] fwdCurrentCacheSizeBytesPeriodic:last 24645494
attr source fwdCurrentCacheSizeBytesPeriodic
attr title "Periodic Cache Size, last"
attr unit byte
scalar OPSHeraldNetwork.host[2] fwdCurrentCacheSizeBytesPeriodic:mean 9986085.1965939
attr source fwdCurrentCacheSizeBytesPeriodic
attr title "Periodic Cache Size, mean"
attr unit byte
scalar OPSHeraldNetwork.host[2] fwdCurrentCacheSizeBytesAvg:last 12144691.884191
attr source sum(fwdCurrentCacheSizeBytes)/sum(fwdCurrentCacheSizeReportedCount)
attr title "Average Cache Size, last"
attr unit byte
scalar OPSHeraldNetwork.host[2] fwdCacheBytesUpdated:last 3151822
attr source sum(fwdCacheBytesUpdated)
attr title "Cache Updates, last"
attr unit byte
scalar OPSHeraldNetwork.host[2] fwdCacheBytesAdded:last 24645494
attr source sum(fwdCacheBytesAdded)
attr title "Cache Additions, last"
attr unit byte
scalar OPSHeraldNetwork.host[2] fwdCacheBytesRemoved:last -nan
attr source sum(fwdCacheBytesRemoved)
attr title "Cache Removals, last"
attr unit byte
scalar OPSHeraldNetwork.host[2] fwdAvgHopsTravelled:last 3.6204933586338
attr source sum(fwdHopsTravelled)/sum(fwdHopsTravelledCount)
attr title "Average Hops Travelled, last"
scalar OPSHeraldNetwork.host[2] fwdTotalBytesReceived:last 28801170
attr source sum(fwdTotalBytesReceived)
attr title "Total Received, last"
attr unit byte
scalar OPSHeraldNetwork.host[2] fwdDPTableDataBytesReceived:last -nan
attr source sum(fwdDPTableDataBytesReceived)
attr title "DP Table Data Received, last"
attr unit byte
scalar OPSHeraldNetwork.host[2] fwdDPTableRequestBytesReceived:last -nan
attr source sum(fwdDPTableRequestBytesReceived)
attr title "DP Table Requests Received, last"
attr unit byte
scalar OPSHeraldNetwork.host[2] fwdDataReqBytesReceived:last 12640
attr source sum(fwdDataReqBytesReceived)
attr title "Data Requests Received, last"
attr unit byte
scalar OPSHeraldNetwork.host[2] fwdSumVecBytesReceived:last 1887876
attr source sum(fwdSumVecBytesReceived)
attr title "Summary Vectors Received, last"
attr unit byte
scalar OPSHeraldNetwork.host[2] fwdDataBytesReceived:last 26900654
attr source sum(fwdDataBytesReceived)
attr title "Data Received, last"
attr unit byte
scalar OPSHeraldNetwork.host[2] appTotalDataCountReceived2:last 933
attr source sum(appTotalDataCountReceived2)
scalar OPSHeraldNetwork.host[2] appTotalDataBytesReceived2:last 23722482
attr source sum(appTotalDataBytesReceived2)
scalar OPSHeraldNetwork.host[2] appTotalDataReceivedDelay2:mean 97504.828457706
attr source appTotalDataReceivedDelay2
scalar OPSHeraldNetwork.host[2] appNonLikedDataReceivedDelay2:mean 97135.973520345
attr source appNonLikedDataReceivedDelay2
scalar OPSHeraldNetwork.host[2] appLikedDataReceivedDelay2:mean 98588.048020591
attr source appLikedDataReceivedDelay2
scalar OPSHeraldNetwork.host[2] appTotalDataAvgHopCount:last 3.5284030010718
attr source sum(appTotalDataHopsForAvgHopsComp)/sum(appTotalDataHopsCountForAvgHopsComp)
scalar OPSHeraldNetwork.host[2] appNonLikedDataAvgHopCount:last 3.5359195402299
attr source sum(appNonLikedDataHopsForAvgHopsComp)/sum(appNonLikedDataHopsCountForAvgHopsComp)
scalar OPSHeraldNetwork.host[2] appLikedDataAvgHopCount:last 3.5063291139241
attr source sum(appLikedDataHopsForAvgHopsComp)/sum(appLikedDataHopsCountForAvgHopsComp)
scalar OPSHeraldNetwork.host[2] appTotalDataDeliveryRatio:last 0.54721407624633
attr source sum(appTotalDataCountReceivedForRatioComp)/sum(appTotalDataCountMaxReceivableForRatioComp)
scalar OPSHeraldNetwork.host[2] appNonLikedDataDeliveryRatio:last 0.54803149606299
attr source sum(appNonLikedDataCountReceivedForRatioComp)/sum(appNonLikedDataCountMaxReceivableForRatioComp)
scalar OPSHeraldNetwork.host[2] appLikedDataDeliveryRatio:last 0.5448275862069
attr source sum(appLikedDataCountReceivedForRatioComp)/sum(appLikedDataCountMaxReceivableForRatioComp)
scalar OPSHeraldNetwork.host[2] appTotalDataReceivedAvgDelay:last 97504.828457706
attr source sum(appTotalDataReceivedDelay)/sum(appTotalDataCountReceivedForAvgDelayComp)
scalar OPSHeraldNetwork.host[2] appNonLikedDataReceivedAvgDelay:last 97135.973520345
attr source sum(appNonLikedDataReceivedDelay)/sum(appNonLikedDataCountReceivedForAvgDelayComp)
scalar OPSHeraldNetwork.host[2] appLikedDataReceivedAvgDelay:last 98588.048020591
attr source sum(appLikedDataReceivedDelay)/sum(appLikedDataCountReceivedForAvgDelayComp)
scalar OPSHeraldNetwork.host[2] appTotalDataCountMaxReceivable:last 1705
attr source sum(appTotalDataCountMaxReceivable)
scalar OPSHeraldNetwork.host[2] appNonLikedDataCountMaxReceivable:last 1270
attr source sum(appNonLikedDataCountMaxReceivable)
scalar OPSHeraldNetwork.host[2] appLikedDataCountMaxReceivable:last 435
attr source sum(appLikedDataCountMaxReceivable)
scalar OPSHeraldNetwork.host[2] appTotalDataBytesMaxReceivable:last 43260644
attr source sum(appTotalDataBytesMaxReceivable)
scalar OPSHeraldNetwork.host[2] appNonLikedDataBytesMaxReceivable:last 32075704
attr source sum(appNonLikedDataBytesMaxReceivable)
scalar OPSHeraldNetwork.host[2] appLikedDataBytesMaxReceivable:last 11184940
attr source sum(appLikedDataBytesMaxReceivable)
scalar OPSHeraldNetwork.host[2] appTotalDataCountReceived:last 1054
attr source sum(appTotalDataCountReceived)
scalar OPSHeraldNetwork.host[2] appDuplicateDataCountReceived:last 121
attr source sum(appDuplicateDataCountReceived)
scalar OPSHeraldNetwork.host[2] appNonLikedDataCountReceived:last 696
attr source sum(appNonLikedDataCountReceived)
scalar OPSHeraldNetwork.host[2] appLikedDataCountReceived:last 237
attr source sum(appLikedDataCountReceived)
scalar OPSHeraldNetwork.host[2] appTotalDataBytesReceived:last 26874304
attr source sum(appTotalDataBytesReceived)
scalar OPSHeraldNetwork.host[2] appDuplicateDataBytesReceived:last 3151822
attr source sum(appDuplicateDataBytesReceived)
scalar OPSHeraldNetwork.host[2] appNonLikedDataBytesReceived:last 17770013
attr source sum(appNonLikedDataBytesReceived)
scalar OPSHeraldNetwork.host[2] appLikedDataBytesReceived:last 5952469
attr source sum(appLikedDataBytesReceived)
scalar OPSHeraldNetwork.host[3].forwarding numEventsHandled 97141
scalar OPSHeraldNetwork.host[3] linkSimpleNeighbourSize:mean 0.4681498015873
attr source linkSimpleNeighSize
attr title "Simple Neighbour Size, mean"
scalar OPSHeraldNetwork.host[3] linkContactCount:last 27
attr source sum(linkContactCount)
attr title "Contact Count, last"
scalar OPSHeraldNetwork.host[3] linkAvgContactDuration:last 2905.5185185185
attr source sum(linkContactDuration)/sum(linkContactDurationCount)
attr title "Average Contact Duration, last"
attr unit s
scalar OPSHeraldNetwork.host[3] linkAvgNeighbourSize:last 0.4681498015873
attr source sum(linkNeighSize)/sum(linkNeighSizeCount)
attr title "Average Neighbour Size, last"
scalar OPSHeraldNetwork.host[3] fwdTotalBytesSent:last 50753498
attr source sum(fwdTotalBytesSent)
attr title "Total Sent, last"
attr unit byte
scalar OPSHeraldNetwork.host[3] fwdDPTableDataBytesSent:last -nan
attr source sum(fwdDPTableDataBytesSent)
attr title "DP Table Data Sent, last"
attr unit byte
scalar OPSHeraldNetwork.host[3] fwdDPTableRequestBytesSent:last -nan
attr source sum(fwdDPTableRequestBytesSent)
attr title "DP Table Requests Sent, last"
attr unit byte
scalar OPSHeraldNetwork.host[3] fwdDataReqBytesSent:last 39376
attr source sum(fwdDataReqBytesSent)
attr title "Data Requests Sent, last"
attr unit byte
scalar OPSHeraldNetwork.host[3] fwdSumVecBytesSent:last 2101840
attr source sum(fwdSumVecBytesSent)
attr title "Summary Vectors Sent, last"
attr unit byte
scalar OPSHeraldNetwork.host[3] fwdDataBytesSent:last 48612282
attr source sum(fwdDataBytesSent)
attr title "Data Sent, last"
attr unit byte
scalar OPSHeraldNetwork.host[3] fwdCurrentCacheSizeBytes2:last 24346086
attr source fwdCurrentCacheSizeBytes2
attr title "Cache Size, last"
attr unit byte
scalar OPSHeraldNetwork.host[3] fwdCurrentCacheSizeBytes2:mean 12316719.020992
attr source fwdCurrentCacheSizeBytes2
attr title "Cache Size, mean"
attr unit byte
scalar OPSHeraldNetwork.host[3] fwdCurrentCacheSizeBytesPeriodic:last 24346086
attr source fwdCurrentCacheSizeBytesPeriodic
attr title "Periodic Cache Size, last"
attr unit byte
scalar OPSHeraldNetwork.host[3] fwdCurrentCacheSizeBytesPeriodic:mean 8997120.1112765
attr source fwdCurrentCacheSizeBytesPeriodic
attr title "Periodic Cache Size, mean"
attr unit byte
scalar OPSHeraldNetwork.host[3] fwdCurrentCacheSizeBytesAvg:last 12316719.020992
attr source sum(fwdCurrentCacheSizeBytes)/sum(fwdCurrentCacheSizeReportedCount)
attr title "Average Cache Size, last"
attr unit byte
scalar OPSHeraldNetwork.host[3] fwdCacheBytesUpdated:last 2282148
attr source sum(fwdCacheBytesUpdated)
attr title "Cache Updates, last"
attr unit byte
scalar OPSHeraldNetwork.host[3] fwdCacheBytesAdded:last 24346086
attr source sum(fwdCacheBytesAdded)
attr title "Cache Additions, last"
attr unit byte
scalar OPSHeraldNetwork.host[3] fwdCacheBytesRemoved:last -nan
attr source sum(fwdCacheBytesRemoved)
attr title "Cache Removals, last"
attr unit byte
scalar OPSHeraldNetwork.host[3] fwdAvgHopsTravelled:last 3.5511811023622
attr source sum(fwdHopsTravelled)/sum(fwdHopsTravelledCount)
attr title "Average Hops Travelled, last"
scalar OPSHeraldNetwork.host[3] fwdTotalBytesReceived:last 27568628
attr source sum(fwdTotalBytesReceived)
attr title "Total Received, last"
attr unit byte
scalar OPSHeraldNetwork.host[3] fwdDPTableDataBytesReceived:last -nan
attr source sum(fwdDPTableDataBytesReceived)
attr title "DP Table Data Received, last"
attr unit byte
scalar OPSHeraldNetwork.host[3] fwdDPTableRequestBytesReceived:last -nan
attr source sum(fwdDPTableRequestBytesReceived)
attr title "DP Table Requests Received, last"
attr unit byte
scalar OPSHeraldNetwork.host[3] fwdDataReqBytesReceived:last 12900
attr source sum(fwdDataReqBytesReceived)
attr title "Data Requests Received, last"
attr unit byte
scalar OPSHeraldNetwork.host[3] fwdSumVecBytesReceived:last 1781700
attr source sum(fwdSumVecBytesReceived)
attr title "Summary Vectors Received, last"
attr unit byte
scalar OPSHeraldNetwork.host[3] fwdDataBytesReceived:last 25774028
attr source sum(fwdDataBytesReceived)
attr title "Data Received, last"
attr unit byte
scalar OPSHeraldNetwork.host[3] appTotalDataCountReceived2:last 924
attr source sum(appTotalDataCountReceived2)
scalar OPSHeraldNetwork.host[3] appTotalDataBytesReceived2:last 23466480
attr source sum(appTotalDataBytesReceived2)
scalar OPSHeraldNetwork.host[3] appTotalDataReceivedDelay2:mean 124443.81557688
attr source appTotalDataReceivedDelay2
scalar OPSHeraldNetwork.host[3] appNonLikedDataReceivedDelay2:mean 122715.47808185
attr source appNonLikedDataReceivedDelay2
scalar OPSHeraldNetwork.host[3] appLikedDataReceivedDelay2:mean 129628.82806199
attr source appLikedDataReceivedDelay2
scalar OPSHeraldNetwork.host[3] appTotalDataAvgHopCount:last 3.6038961038961
attr source sum(appTotalDataHopsForAvgHopsComp)/sum(appTotalDataHopsCountForAvgHopsComp)
scalar OPSHeraldNetwork.host[3] appNonLikedDataAvgHopCount:last 3.6161616161616
attr source sum(appNonLikedDataHopsForAvgHopsComp)/sum(appNonLikedDataHopsCountForAvgHopsComp)
scalar OPSHeraldNetwork.host[3] appLikedDataAvgHopCount:last 3.5670995670996
attr source sum(appLikedDataHopsForAvgHopsComp)/sum(appLikedDataHopsCountForAvgHopsComp)
scalar OPSHeraldNetwork.host[3] appTotalDataDeliveryRatio:last 0.54130052724077
attr source sum(appTotalDataCountReceivedForRatioComp)/sum(appTotalDataCountMaxReceivableForRatioComp)
scalar OPSHeraldNetwork.host[3] appNonLikedDataDeliveryRatio:last 0.54310344827586
attr source sum(appNonLikedDataCountReceivedForRatioComp)/sum(appNonLikedDataCountMaxReceivableForRatioComp)
scalar OPSHeraldNetwork.host[3] appLikedDataDeliveryRatio:last 0.53596287703016
attr source sum(appLikedDataCountReceivedForRatioComp)/sum(appLikedDataCountMaxReceivableForRatioComp)
scalar OPSHeraldNetwork.host[3] appTotalDataReceivedAvgDelay:last 124443.81557688
attr source sum(appTotalDataReceivedDelay)/sum(appTotalDataCountReceivedForAvgDelayComp)
scalar OPSHeraldNetwork.host[3] appNonLikedDataReceivedAvgDelay:last 122715.47808185
attr source sum(appNonLikedDataReceivedDelay)/sum(appNonLikedDataCountReceivedForAvgDelayComp)
scalar OPSHeraldNetwork.host[3] appLikedDataReceivedAvgDelay:last 129628.82806199
attr source sum(appLikedDataReceivedDelay)/sum(appLikedDataCountReceivedForAvgDelayComp)
scalar OPSHeraldNetwork.host[3] appTotalDataCountMaxReceivable:last 1707
attr source sum(appTotalDataCountMaxReceivable)
scalar OPSHeraldNetwork.host[3] appNonLikedDataCountMaxReceivable:last 1276
attr source sum(appNonLikedDataCountMaxReceivable)
scalar OPSHeraldNetwork.host[3] appLikedDataCountMaxReceivable:last 431
attr source sum(appLikedDataCountMaxReceivable)
scalar OPSHeraldNetwork.host[3] appTotalDataBytesMaxReceivable:last 43304050
attr source sum(appTotalDataBytesMaxReceivable)
scalar OPSHeraldNetwork.host[3] appNonLikedDataBytesMaxReceivable:last 32259993
attr source sum(appNonLikedDataBytesMaxReceivable)
scalar OPSHeraldNetwork.host[3] appLikedDataBytesMaxReceivable:last 11044057
attr source sum(appLikedDataBytesMaxReceivable)
scalar OPSHeraldNetwork.host[3] appTotalDataCountReceived:last 1016
attr source sum(appTotalDataCountReceived)
scalar OPSHeraldNetwork.host[3] appDuplicateDataCountReceived:last 92
attr source sum(appDuplicateDataCountReceived)
scalar OPSHeraldNetwork.host[3] appNonLikedDataCountReceived:last 693
attr source sum(appNonLikedDataCountReceived)
scalar OPSHeraldNetwork.host[3] appLikedDataCountReceived:last 231
attr source sum(appLikedDataCountReceived)
scalar OPSHeraldNetwork.host[3] appTotalDataBytesReceived:last 25748628
attr source sum(appTotalDataBytesReceived)
scalar OPSHeraldNetwork.host[3] appDuplicateDataBytesReceived:last 2282148
attr source sum(appDuplicateDataBytesReceived)
scalar OPSHeraldNetwork.host[3] appNonLikedDataBytesReceived:last 17725034
attr source sum(appNonLikedDataBytesReceived)
scalar OPSHeraldNetwork.host[3] appLikedDataBytesReceived:last 5741446
attr source sum(appLikedDataBytesReceived)
scalar OPSHeraldNetwork.host[4].forwarding numEventsHandled 71643
scalar OPSHeraldNetwork.host[4] linkSimpleNeighbourSize:mean 0.45608630952381
attr source linkSimpleNeighSize
attr title "Simple Neighbour Size, mean"
scalar OPSHeraldNetwork.host[4] linkContactCount:last 16
attr source sum(linkContactCount)
attr title "Contact Count, last"
scalar OPSHeraldNetwork.host[4] linkAvgContactDuration:last 3767.375
attr source sum(linkContactDuration)/sum(linkContactDurationCount)
attr title "Average Contact Duration, last"
attr unit s
scalar OPSHeraldNetwork.host[4] linkAvgNeighbourSize:last 0.45608630952381
attr source sum(linkNeighSize)/sum(linkNeighSizeCount)
attr title "Average Neighbour Size, last"
scalar OPSHeraldNetwork.host[4] fwdTotalBytesSent:last 56540828
attr source sum(fwdTotalBytesSent)
attr title "Total Sent, last"
attr unit byte
scalar OPSHeraldNetwork.host[4] fwdDPTableDataBytesSent:last -nan
attr source sum(fwdDPTableDataBytesSent)
attr title "DP Table Data Sent, last"
attr unit byte
scalar OPSHeraldNetwork.host[4] fwdDPTableRequestBytesSent:last -nan
attr source sum(fwdDPTableRequestBytesSent)
attr title "DP Table Requests Sent, last"
attr unit byte
scalar OPSHeraldNetwork.host[4] fwdDataReqBytesSent:last 45604
attr source sum(fwdDataReqBytesSent)
attr title "Data Requests Sent, last"
attr unit byte
scalar OPSHeraldNetwork.host[4] fwdSumVecBytesSent:last 1961884
attr source sum(fwdSumVecBytesSent)
attr title "Summary Vectors Sent, last"
attr unit byte
scalar OPSHeraldNetwork.host[4] fwdDataBytesSent:last 54533340
attr source sum(fwdDataBytesSent)
attr title "Data Sent, last"
attr unit byte
scalar OPSHeraldNetwork.host[4] fwdCurrentCacheSizeBytes2:last 24346086
attr source fwdCurrentCacheSizeBytes2
attr title "Cache Size, last"
attr unit byte
scalar OPSHeraldNetwork.host[4] fwdCurrentCacheSizeBytes2:mean 12511721.665726
attr source fwdCurrentCacheSizeBytes2
attr title "Cache Size, mean"
attr unit byte
scalar OPSHeraldNetwork.host[4] fwdCurrentCacheSizeBytesPeriodic:last 24346086
attr source fwdCurrentCacheSizeBytesPeriodic
attr title "Periodic Cache Size, last"
attr unit byte
scalar OPSHeraldNetwork.host[4] fwdCurrentCacheSizeBytesPeriodic:mean 8412451.791336
attr source fwdCurrentCacheSizeBytesPeriodic
attr title "Periodic Cache Size, mean"
attr unit byte
scalar OPSHeraldNetwork.host[4] fwdCurrentCacheSizeBytesAvg:last 12511721.665726
attr source sum(fwdCurrentCacheSizeBytes)/sum(fwdCurrentCacheSizeReportedCount)
attr title "Average Cache Size, last"
attr unit byte
scalar OPSHeraldNetwork.host[4] fwdCacheBytesUpdated:last 12455680
attr source sum(fwdCacheBytesUpdated)
attr title "Cache Updates, last"
attr unit byte
scalar OPSHeraldNetwork.host[4] fwdCacheBytesAdded:last 24346086
attr source sum(fwdCacheBytesAdded)
attr title "Cache Additions, last"
attr unit byte
scalar OPSHeraldNetwork.host[4] fwdCacheBytesRemoved:last -nan
attr source sum(fwdCacheBytesRemoved)
attr title "Cache Removals, last"
attr unit byte
scalar OPSHeraldNetwork.host[4] fwdAvgHopsTravelled:last 4.4138428262437
attr source sum(fwdHopsTravelled)/sum(fwdHopsTravelledCount)
attr title "Average Hops Travelled, last"
scalar OPSHeraldNetwork.host[4] fwdTotalBytesReceived:last 37686595
attr source sum(fwdTotalBytesReceived)
attr title "Total Received, last"
attr unit byte
scalar OPSHeraldNetwork.host[4] fwdDPTableDataBytesReceived:last -nan
attr source sum(fwdDPTableDataBytesReceived)
attr title "DP Table Data Received, last"
attr unit byte
scalar OPSHeraldNetwork.host[4] fwdDPTableRequestBytesReceived:last -nan
attr source sum(fwdDPTableRequestBytesReceived)
attr title "DP Table Requests Received, last"
attr unit byte
scalar OPSHeraldNetwork.host[4] fwdDataReqBytesReceived:last 14232
attr source sum(fwdDataReqBytesReceived)
attr title "Data Requests Received, last"
attr unit byte
scalar OPSHeraldNetwork.host[4] fwdSumVecBytesReceived:last 1647312
attr source sum(fwdSumVecBytesReceived)
attr title "Summary Vectors Received, last"
attr unit byte
scalar OPSHeraldNetwork.host[4] fwdDataBytesReceived:last 36025051
attr source sum(fwdDataBytesReceived)
attr title "Data Received, last"
attr unit byte
scalar OPSHeraldNetwork.host[4] appTotalDataCountReceived2:last 925
attr source sum(appTotalDataCountReceived2)
scalar OPSHeraldNetwork.host[4] appTotalDataBytesReceived2:last 23534696
attr source sum(appTotalDataBytesReceived2)
scalar OPSHeraldNetwork.host[4] appTotalDataReceivedDelay2:mean 138205.8230035
attr source appTotalDataReceivedDelay2
scalar OPSHeraldNetwork.host[4] appNonLikedDataReceivedDelay2:mean 136281.87937427
attr source appNonLikedDataReceivedDelay2
scalar OPSHeraldNetwork.host[4] appLikedDataReceivedDelay2:mean 144019.4787527
attr source appLikedDataReceivedDelay2
scalar OPSHeraldNetwork.host[4] appTotalDataAvgHopCount:last 3.8908108108108
attr source sum(appTotalDataHopsForAvgHopsComp)/sum(appTotalDataHopsCountForAvgHopsComp)
scalar OPSHeraldNetwork.host[4] appNonLikedDataAvgHopCount:last 3.9280575539568
attr source sum(appNonLikedDataHopsForAvgHopsComp)/sum(appNonLikedDataHopsCountForAvgHopsComp)
scalar OPSHeraldNetwork.host[4] appLikedDataAvgHopCount:last 3.7782608695652
attr source sum(appLikedDataHopsForAvgHopsComp)/sum(appLikedDataHopsCountForAvgHopsComp)
scalar OPSHeraldNetwork.host[4] appTotalDataDeliveryRatio:last 0.54156908665105
attr source sum(appTotalDataCountReceivedForRatioComp)/sum(appTotalDataCountMaxReceivableForRatioComp)
scalar OPSHeraldNetwork.host[4] appNonLikedDataDeliveryRatio:last 0.54381846635368
attr source sum(appNonLikedDataCountReceivedForRatioComp)/sum(appNonLikedDataCountMaxReceivableForRatioComp)
scalar OPSHeraldNetwork.host[4] appLikedDataDeliveryRatio:last 0.53488372093023
attr source sum(appLikedDataCountReceivedForRatioComp)/sum(appLikedDataCountMaxReceivableForRatioComp)
scalar OPSHeraldNetwork.host[4] appTotalDataReceivedAvgDelay:last 138205.8230035
attr source sum(appTotalDataReceivedDelay)/sum(appTotalDataCountReceivedForAvgDelayComp)
scalar OPSHeraldNetwork.host[4] appNonLikedDataReceivedAvgDelay:last 136281.87937427
attr source sum(appNonLikedDataReceivedDelay)/sum(appNonLikedDataCountReceivedForAvgDelayComp)
scalar OPSHeraldNetwork.host[4] appLikedDataReceivedAvgDelay:last 144019.4787527
attr source sum(appLikedDataReceivedDelay)/sum(appLikedDataCountReceivedForAvgDelayComp)
scalar OPSHeraldNetwork.host[4] appTotalDataCountMaxReceivable:last 1708
attr source sum(appTotalDataCountMaxReceivable)
scalar OPSHeraldNetwork.host[4] appNonLikedDataCountMaxReceivable:last 1278
attr source sum(appNonLikedDataCountMaxReceivable)
scalar OPSHeraldNetwork.host[4] appLikedDataCountMaxReceivable:last 430
attr source sum(appLikedDataCountMaxReceivable)
scalar OPSHeraldNetwork.host[4] appTotalDataBytesMaxReceivable:last 43372266
attr source sum(appTotalDataBytesMaxReceivable)
scalar OPSHeraldNetwork.host[4] appNonLikedDataBytesMaxReceivable:last 32364082
attr source sum(appNonLikedDataBytesMaxReceivable)
scalar OPSHeraldNetwork.host[4] appLikedDataBytesMaxReceivable:last 11008184
attr source sum(appLikedDataBytesMaxReceivable)
scalar OPSHeraldNetwork.host[4] appTotalDataCountReceived:last 1387
attr source sum(appTotalDataCountReceived)
scalar OPSHeraldNetwork.host[4] appDuplicateDataCountReceived:last 462
attr source sum(appDuplicateDataCountReceived)
scalar OPSHeraldNetwork.host[4] appNonLikedDataCountReceived:last 695
attr source sum(appNonLikedDataCountReceived)
scalar OPSHeraldNetwork.host[4] appLikedDataCountReceived:last 230
attr source sum(appLikedDataCountReceived)
scalar OPSHeraldNetwork.host[4] appTotalDataBytesReceived:last 35990376
attr source sum(appTotalDataBytesReceived)
scalar OPSHeraldNetwork.host[4] appDuplicateDataBytesReceived:last 12455680
attr source sum(appDuplicateDataBytesReceived)
scalar OPSHeraldNetwork.host[4] appNonLikedDataBytesReceived:last 17829123
attr source sum(appNonLikedDataBytesReceived)
scalar OPSHeraldNetwork.host[4] appLikedDataBytesReceived:last 5705573
attr source sum(appLikedDataBytesReceived)
scalar OPSHeraldNetwork.host[5].forwarding numEventsHandled 82967
scalar OPSHeraldNetwork.host[5] linkSimpleNeighbourSize:mean 0.34556051587302
attr source linkSimpleNeighSize
attr title "Simple Neighbour Size, mean"
scalar OPSHeraldNetwork.host[5] linkContactCount:last 28
attr source sum(linkContactCount)
attr title "Contact Count, last"
scalar OPSHeraldNetwork.host[5] linkAvgContactDuration:last 2713.1071428571
attr source sum(linkContactDuration)/sum(linkContactDurationCount)
attr title "Average Contact Duration, last"
attr unit s
scalar OPSHeraldNetwork.host[5] linkAvgNeighbourSize:last 0.34556051587302
attr source sum(linkNeighSize)/sum(linkNeighSizeCount)
attr title "Average Neighbour Size, last"
scalar OPSHeraldNetwork.host[5] fwdTotalBytesSent:last 3123021
attr source sum(fwdTotalBytesSent)
attr title "Total Sent, last"
attr unit byte
scalar OPSHeraldNetwork.host[5] fwdDPTableDataBytesSent:last -nan
attr source sum(fwdDPTableDataBytesSent)
attr title "DP Table Data Sent, last"
attr unit byte
scalar OPSHeraldNetwork.host[5] fwdDPTableRequestBytesSent:last -nan
attr source sum(fwdDPTableRequestBytesSent)
attr title "DP Table Requests Sent, last"
attr unit byte
scalar OPSHeraldNetwork.host[5] fwdDataReqBytesSent:last 925372
attr source sum(fwdDataReqBytesSent)
attr title "Data Requests Sent, last"
attr unit byte
scalar OPSHeraldNetwork.host[5] fwdSumVecBytesSent:last 168680
attr source sum(fwdSumVecBytesSent)
attr title "Summary Vectors Sent, last"
attr unit byte
scalar OPSHeraldNetwork.host[5] fwdDataBytesSent:last 2028969
attr source sum(fwdDataBytesSent)
attr title "Data Sent, last"
attr unit byte
scalar OPSHeraldNetwork.host[5] fwdCurrentCacheSizeBytes2:last 3005542
attr source fwdCurrentCacheSizeBytes2
attr title "Cache Size, last"
attr unit byte
scalar OPSHeraldNetwork.host[5] fwdCurrentCacheSizeBytes2:mean 1550030.0725806
attr source fwdCurrentCacheSizeBytes2
attr title "Cache Size, mean"
attr unit byte
scalar OPSHeraldNetwork.host[5] fwdCurrentCacheSizeBytesPeriodic:last 3005542
attr source fwdCurrentCacheSizeBytesPeriodic
attr title "Periodic Cache Size, last"
attr unit byte
scalar OPSHeraldNetwork.host[5] fwdCurrentCacheSizeBytesPeriodic:mean 1643665.8647487
attr source fwdCurrentCacheSizeBytesPeriodic
attr title "Periodic Cache Size, mean"
attr unit byte
scalar OPSHeraldNetwork.host[5] fwdCurrentCacheSizeBytesAvg:last 1550030.0725806
attr source sum(fwdCurrentCacheSizeBytes)/sum(fwdCurrentCacheSizeReportedCount)
attr title "Average Cache Size, last"
attr unit byte
scalar OPSHeraldNetwork.host[5] fwdCacheBytesUpdated:last -nan
attr source sum(fwdCacheBytesUpdated)
attr title "Cache Updates, last"
attr unit byte
scalar OPSHeraldNetwork.host[5] fwdCacheBytesAdded:last 3005542
attr source sum(fwdCacheBytesAdded)
attr title "Cache Additions, last"
attr unit byte
scalar OPSHeraldNetwork.host[5] fwdCacheBytesRemoved:last -nan
attr source sum(fwdCacheBytesRemoved)
attr title "Cache Removals, last"
attr unit byte
scalar OPSHeraldNetwork.host[5] fwdAvgHopsTravelled:last 2.4395604395604
attr source sum(fwdHopsTravelled)/sum(fwdHopsTravelledCount)
attr title "Average Hops Travelled, last"
scalar OPSHeraldNetwork.host[5] fwdTotalBytesReceived:last 3142244
attr source sum(fwdTotalBytesReceived)
attr title "Total Received, last"
attr unit byte
scalar OPSHeraldNetwork.host[5] fwdDPTableDataBytesReceived:last -nan
attr source sum(fwdDPTableDataBytesReceived)
attr title "DP Table Data Received, last"
attr unit byte
scalar OPSHeraldNetwork.host[5] fwdDPTableRequestBytesReceived:last -nan
attr source sum(fwdDPTableRequestBytesReceived)
attr title "DP Table Requests Received, last"
attr unit byte
scalar OPSHeraldNetwork.host[5] fwdDataReqBytesReceived:last 1444
attr source sum(fwdDataReqBytesReceived)
attr title "Data Requests Received, last"
attr unit byte
scalar OPSHeraldNetwork.host[5] fwdSumVecBytesReceived:last 1058772
attr source sum(fwdSumVecBytesReceived)
attr title "Summary Vectors Received, last"
attr unit byte
scalar OPSHeraldNetwork.host[5] fwdDataBytesReceived:last 2082028
attr source sum(fwdDataBytesReceived)
attr title "Data Received, last"
attr unit byte
scalar OPSHeraldNetwork.host[5] appTotalDataCountReceived2:last 91
attr source sum(appTotalDataCountReceived2)
scalar OPSHeraldNetwork.host[5] appTotalDataBytesReceived2:last 2079753
attr source sum(appTotalDataBytesReceived2)
scalar OPSHeraldNetwork.host[5] appTotalDataReceivedDelay2:mean 207886.73789802
attr source appTotalDataReceivedDelay2
scalar OPSHeraldNetwork.host[5] appNonLikedDataReceivedDelay2:mean 187027.98052657
attr source appNonLikedDataReceivedDelay2
scalar OPSHeraldNetwork.host[5] appLikedDataReceivedDelay2:mean 266117.43556
attr source appLikedDataReceivedDelay2
scalar OPSHeraldNetwork.host[5] appTotalDataAvgHopCount:last 2.4395604395604
attr source sum(appTotalDataHopsForAvgHopsComp)/sum(appTotalDataHopsCountForAvgHopsComp)
scalar OPSHeraldNetwork.host[5] appNonLikedDataAvgHopCount:last 2.3731343283582
attr source sum(appNonLikedDataHopsForAvgHopsComp)/sum(appNonLikedDataHopsCountForAvgHopsComp)
scalar OPSHeraldNetwork.host[5] appLikedDataAvgHopCount:last 2.625
attr source sum(appLikedDataHopsForAvgHopsComp)/sum(appLikedDataHopsCountForAvgHopsComp)
scalar OPSHeraldNetwork.host[5] appTotalDataDeliveryRatio:last 0.053341148886284
attr source sum(appTotalDataCountReceivedForRatioComp)/sum(appTotalDataCountMaxReceivableForRatioComp)
scalar OPSHeraldNetwork.host[5] appNonLikedDataDeliveryRatio:last 0.052714398111723
attr source sum(appNonLikedDataCountReceivedForRatioComp)/sum(appNonLikedDataCountMaxReceivableForRatioComp)
scalar OPSHeraldNetwork.host[5] appLikedDataDeliveryRatio:last 0.055172413793103
attr source sum(appLikedDataCountReceivedForRatioComp)/sum(appLikedDataCountMaxReceivableForRatioComp)
scalar OPSHeraldNetwork.host[5] appTotalDataReceivedAvgDelay:last 207886.73789802
attr source sum(appTotalDataReceivedDelay)/sum(appTotalDataCountReceivedForAvgDelayComp)
scalar OPSHeraldNetwork.host[5] appNonLikedDataReceivedAvgDelay:last 187027.98052657
attr source sum(appNonLikedDataReceivedDelay)/sum(appNonLikedDataCountReceivedForAvgDelayComp)
scalar OPSHeraldNetwork.host[5] appLikedDataReceivedAvgDelay:last 266117.43556
attr source sum(appLikedDataReceivedDelay)/sum(appLikedDataCountReceivedForAvgDelayComp)
scalar OPSHeraldNetwork.host[5] appTotalDataCountMaxReceivable:last 1706
attr source sum(appTotalDataCountMaxReceivable)
scalar OPSHeraldNetwork.host[5] appNonLikedDataCountMaxReceivable:last 1271
attr source sum(appNonLikedDataCountMaxReceivable)
scalar OPSHeraldNetwork.host[5] appLikedDataCountMaxReceivable:last 435
attr source sum(appLikedDataCountMaxReceivable)
scalar OPSHeraldNetwork.host[5] appTotalDataBytesMaxReceivable:last 43257867
attr source sum(appTotalDataBytesMaxReceivable)
scalar OPSHeraldNetwork.host[5] appNonLikedDataBytesMaxReceivable:last 32135320
attr source sum(appNonLikedDataBytesMaxReceivable)
scalar OPSHeraldNetwork.host[5] appLikedDataBytesMaxReceivable:last 11122547
attr source sum(appLikedDataBytesMaxReceivable)
scalar OPSHeraldNetwork.host[5] appTotalDataCountReceived:last 91
attr source sum(appTotalDataCountReceived)
scalar OPSHeraldNetwork.host[5] appDuplicateDataCountReceived:last -nan
attr source sum(appDuplicateDataCountReceived)
scalar OPSHeraldNetwork.host[5] appNonLikedDataCountReceived:last 67
attr source sum(appNonLikedDataCountReceived)
scalar OPSHeraldNetwork.host[5] appLikedDataCountReceived:last 24
attr source sum(appLikedDataCountReceived)
scalar OPSHeraldNetwork.host[5] appTotalDataBytesReceived:last 2079753
attr source sum(appTotalDataBytesReceived)
scalar OPSHeraldNetwork.host[5] appDuplicateDataBytesReceived:last -nan
attr source sum(appDuplicateDataBytesReceived)
scalar OPSHeraldNetwork.host[5] appNonLikedDataBytesReceived:last 1491047
attr source sum(appNonLikedDataBytesReceived)
scalar OPSHeraldNetwork.host[5] appLikedDataBytesReceived:last 588706
attr source sum(appLikedDataBytesReceived)
scalar OPSHeraldNetwork.host[6].forwarding numEventsHandled 84713
scalar OPSHeraldNetwork.host[6] linkSimpleNeighbourSize:mean 0.51892857142857
attr source linkSimpleNeighSize
attr title "Simple Neighbour Size, mean"
scalar OPSHeraldNetwork.host[6] linkContactCount:last 20
attr source sum(linkContactCount)
attr title "Contact Count, last"
scalar OPSHeraldNetwork.host[6] linkAvgContactDuration:last 3514.3
attr source sum(linkContactDuration)/sum(linkContactDurationCount)
attr title "Average Contact Duration, last"
attr unit s
scalar OPSHeraldNetwork.host[6] linkAvgNeighbourSize:last 0.51892857142857
attr source sum(linkNeighSize)/sum(linkNeighSizeCount)
attr title "Average Neighbour Size, last"
scalar OPSHeraldNetwork.host[6] fwdTotalBytesSent:last 62569391
attr source sum(fwdTotalBytesSent)
attr title "Total Sent, last"
attr unit byte
scalar OPSHeraldNetwork.host[6] fwdDPTableDataBytesSent:last -nan
attr source sum(fwdDPTableDataBytesSent)
attr title "DP Table Data Sent, last"
attr unit byte
scalar OPSHeraldNetwork.host[6] fwdDPTableRequestBytesSent:last -nan
attr source sum(fwdDPTableRequestBytesSent)
attr title "DP Table Requests Sent, last"
attr unit byte
scalar OPSHeraldNetwork.host[6] fwdDataReqBytesSent:last 42940
attr source sum(fwdDataReqBytesSent)
attr title "Data Requests Sent, last"
attr unit byte
scalar OPSHeraldNetwork.host[6] fwdSumVecBytesSent:last 2225588
attr source sum(fwdSumVecBytesSent)
attr title "Summary Vectors Sent, last"
attr unit byte
scalar OPSHeraldNetwork.host[6] fwdDataBytesSent:last 60300863
attr source sum(fwdDataBytesSent)
attr title "Data Sent, last"
attr unit byte
scalar OPSHeraldNetwork.host[6] fwdCurrentCacheSizeBytes2:last 24645494
attr source fwdCurrentCacheSizeBytes2
attr title "Cache Size, last"
attr unit byte
scalar OPSHeraldNetwork.host[6] fwdCurrentCacheSizeBytes2:mean 13269113.47619
attr source fwdCurrentCacheSizeBytes2
attr title "Cache Size, mean"
attr unit byte
scalar OPSHeraldNetwork.host[6] fwdCurrentCacheSizeBytesPeriodic:last 24645494
attr source fwdCurrentCacheSizeBytesPeriodic
attr title "Periodic Cache Size, last"
attr unit byte
scalar OPSHeraldNetwork.host[6] fwdCurrentCacheSizeBytesPeriodic:mean 9714478.3452381
attr source fwdCurrentCacheSizeBytesPeriodic
attr title "Periodic Cache Size, mean"
attr unit byte
scalar OPSHeraldNetwork.host[6] fwdCurrentCacheSizeBytesAvg:last 13269113.47619
attr source sum(fwdCurrentCacheSizeBytes)/sum(fwdCurrentCacheSizeReportedCount)
attr title "Average Cache Size, last"
attr unit byte
scalar OPSHeraldNetwork.host[6] fwdCacheBytesUpdated:last 3644975
attr source sum(fwdCacheBytesUpdated)
attr title "Cache Updates, last"
attr unit byte
scalar OPSHeraldNetwork.host[6] fwdCacheBytesAdded:last 24645494
attr source sum(fwdCacheBytesAdded)
attr title "Cache Additions, last"
attr unit byte
scalar OPSHeraldNetwork.host[6] fwdCacheBytesRemoved:last -nan
attr source sum(fwdCacheBytesRemoved)
attr title "Cache Removals, last"
attr unit byte
scalar OPSHeraldNetwork.host[6] fwdAvgHopsTravelled:last 3.5
attr source sum(fwdHopsTravelled)/sum(fwdHopsTravelledCount)
attr title "Average Hops Travelled, last"
scalar OPSHeraldNetwork.host[6] fwdTotalBytesReceived:last 29518944
attr source sum(fwdTotalBytesReceived)
attr title "Total Received, last"
attr unit byte
scalar OPSHeraldNetwork.host[6] fwdDPTableDataBytesReceived:last -nan
attr source sum(fwdDPTableDataBytesReceived)
attr title "DP Table Data Received, last"
attr unit byte
scalar OPSHeraldNetwork.host[6] fwdDPTableRequestBytesReceived:last -nan
attr source sum(fwdDPTableRequestBytesReceived)
attr title "DP Table Requests Received, last"
attr unit byte
scalar OPSHeraldNetwork.host[6] fwdDataReqBytesReceived:last 16140
attr source sum(fwdDataReqBytesReceived)
attr title "Data Requests Received, last"
attr unit byte
scalar OPSHeraldNetwork.host[6] fwdSumVecBytesReceived:last 2012672
attr source sum(fwdSumVecBytesReceived)
attr title "Summary Vectors Received, last"
attr unit byte
scalar OPSHeraldNetwork.host[6] fwdDataBytesReceived:last 27490132
attr source sum(fwdDataBytesReceived)
attr title "Data Received, last"
attr unit byte
scalar OPSHeraldNetwork.host[6] appTotalDataCountReceived2:last 934
attr source sum(appTotalDataCountReceived2)
scalar OPSHeraldNetwork.host[6] appTotalDataBytesReceived2:last 23818157
attr source sum(appTotalDataBytesReceived2)
scalar OPSHeraldNetwork.host[6] appTotalDataReceivedDelay2:mean 104093.82475589
attr source appTotalDataReceivedDelay2
scalar OPSHeraldNetwork.host[6] appNonLikedDataReceivedDelay2:mean 102624.91934733
attr source appNonLikedDataReceivedDelay2
scalar OPSHeraldNetwork.host[6] appLikedDataReceivedDelay2:mean 108513.14961167
attr source appLikedDataReceivedDelay2
scalar OPSHeraldNetwork.host[6] appTotalDataAvgHopCount:last 3.5813704496788
attr source sum(appTotalDataHopsForAvgHopsComp)/sum(appTotalDataHopsCountForAvgHopsComp)
scalar OPSHeraldNetwork.host[6] appNonLikedDataAvgHopCount:last 3.6162624821683
attr source sum(appNonLikedDataHopsForAvgHopsComp)/sum(appNonLikedDataHopsCountForAvgHopsComp)
scalar OPSHeraldNetwork.host[6] appLikedDataAvgHopCount:last 3.4763948497854
attr source sum(appLikedDataHopsForAvgHopsComp)/sum(appLikedDataHopsCountForAvgHopsComp)
scalar OPSHeraldNetwork.host[6] appTotalDataDeliveryRatio:last 0.54747948417351
attr source sum(appTotalDataCountReceivedForRatioComp)/sum(appTotalDataCountMaxReceivableForRatioComp)
scalar OPSHeraldNetwork.host[6] appNonLikedDataDeliveryRatio:last 0.54980392156863
attr source sum(appNonLikedDataCountReceivedForRatioComp)/sum(appNonLikedDataCountMaxReceivableForRatioComp)
scalar OPSHeraldNetwork.host[6] appLikedDataDeliveryRatio:last 0.54060324825986
attr source sum(appLikedDataCountReceivedForRatioComp)/sum(appLikedDataCountMaxReceivableForRatioComp)
scalar OPSHeraldNetwork.host[6] appTotalDataReceivedAvgDelay:last 104093.82475589
attr source sum(appTotalDataReceivedDelay)/sum(appTotalDataCountReceivedForAvgDelayComp)
scalar OPSHeraldNetwork.host[6] appNonLikedDataReceivedAvgDelay:last 102624.91934733
attr source sum(appNonLikedDataReceivedDelay)/sum(appNonLikedDataCountReceivedForAvgDelayComp)
scalar OPSHeraldNetwork.host[6] appLikedDataReceivedAvgDelay:last 108513.14961167
attr source sum(appLikedDataReceivedDelay)/sum(appLikedDataCountReceivedForAvgDelayComp)
scalar OPSHeraldNetwork.host[6] appTotalDataCountMaxReceivable:last 1706
attr source sum(appTotalDataCountMaxReceivable)
scalar OPSHeraldNetwork.host[6] appNonLikedDataCountMaxReceivable:last 1275
attr source sum(appNonLikedDataCountMaxReceivable)
scalar OPSHeraldNetwork.host[6] appLikedDataCountMaxReceivable:last 431
attr source sum(appLikedDataCountMaxReceivable)
scalar OPSHeraldNetwork.host[6] appTotalDataBytesMaxReceivable:last 43356319
attr source sum(appTotalDataBytesMaxReceivable)
scalar OPSHeraldNetwork.host[6] appNonLikedDataBytesMaxReceivable:last 32317857
attr source sum(appNonLikedDataBytesMaxReceivable)
scalar OPSHeraldNetwork.host[6] appLikedDataBytesMaxReceivable:last 11038462
attr source sum(appLikedDataBytesMaxReceivable)
scalar OPSHeraldNetwork.host[6] appTotalDataCountReceived:last 1080
attr source sum(appTotalDataCountReceived)
scalar OPSHeraldNetwork.host[6] appDuplicateDataCountReceived:last 146
attr source sum(appDuplicateDataCountReceived)
scalar OPSHeraldNetwork.host[6] appNonLikedDataCountReceived:last 701
attr source sum(appNonLikedDataCountReceived)
scalar OPSHeraldNetwork.host[6] appLikedDataCountReceived:last 233
attr source sum(appLikedDataCountReceived)
scalar OPSHeraldNetwork.host[6] appTotalDataBytesReceived:last 27463132
attr source sum(appTotalDataBytesReceived)
scalar OPSHeraldNetwork.host[6] appDuplicateDataBytesReceived:last 3644975
attr source sum(appDuplicateDataBytesReceived)
scalar OPSHeraldNetwork.host[6] appNonLikedDataBytesReceived:last 18012166
attr source sum(appNonLikedDataBytesReceived)
scalar OPSHeraldNetwork.host[6] appLikedDataBytesReceived:last 5805991
attr source sum(appLikedDataBytesReceived)
scalar OPSHeraldNetwork.host[7].forwarding numEventsHandled 21889
scalar OPSHeraldNetwork.host[7] linkSimpleNeighbourSize:mean 0.082369378306878
attr source linkSimpleNeighSize
attr title "Simple Neighbour Size, mean"
scalar OPSHeraldNetwork.host[7] linkContactCount:last 10
attr source sum(linkContactCount)
attr title "Contact Count, last"
scalar OPSHeraldNetwork.host[7] linkAvgContactDuration:last 1450.1
attr source sum(linkContactDuration)/sum(linkContactDurationCount)
attr title "Average Contact Duration, last"
attr unit s
scalar OPSHeraldNetwork.host[7] linkAvgNeighbourSize:last 0.082369378306878
attr source sum(linkNeighSize)/sum(linkNeighSizeCount)
attr title "Average Neighbour Size, last"
scalar OPSHeraldNetwork.host[7] fwdTotalBytesSent:last 2280174
attr source sum(fwdTotalBytesSent)
attr title "Total Sent, last"
attr unit byte
scalar OPSHeraldNetwork.host[7] fwdDPTableDataBytesSent:last -nan
attr source sum(fwdDPTableDataBytesSent)
attr title "DP Table Data Sent, last"
attr unit byte
scalar OPSHeraldNetwork.host[7] fwdDPTableRequestBytesSent:last -nan
attr source sum(fwdDPTableRequestBytesSent)
attr title "DP Table Requests Sent, last"
attr unit byte
scalar OPSHeraldNetwork.host[7] fwdDataReqBytesSent:last 13512
attr source sum(fwdDataReqBytesSent)
attr title "Data Requests Sent, last"
attr unit byte
scalar OPSHeraldNetwork.host[7] fwdSumVecBytesSent:last 363236
attr source sum(fwdSumVecBytesSent)
attr title "Summary Vectors Sent, last"
attr unit byte
scalar OPSHeraldNetwork.host[7] fwdDataBytesSent:last 1903426
attr source sum(fwdDataBytesSent)
attr title "Data Sent, last"
attr unit byte
scalar OPSHeraldNetwork.host[7] fwdCurrentCacheSizeBytes2:last 22829706
attr source fwdCurrentCacheSizeBytes2
attr title "Cache Size, last"
attr unit byte
scalar OPSHeraldNetwork.host[7] fwdCurrentCacheSizeBytes2:mean 10812102.946538
attr source fwdCurrentCacheSizeBytes2
attr title "Cache Size, mean"
attr unit byte
scalar OPSHeraldNetwork.host[7] fwdCurrentCacheSizeBytesPeriodic:last 22829706
attr source fwdCurrentCacheSizeBytesPeriodic
attr title "Periodic Cache Size, last"
attr unit byte
scalar OPSHeraldNetwork.host[7] fwdCurrentCacheSizeBytesPeriodic:mean 8308142.7094907
attr source fwdCurrentCacheSizeBytesPeriodic
attr title "Periodic Cache Size, mean"
attr unit byte
scalar OPSHeraldNetwork.host[7] fwdCurrentCacheSizeBytesAvg:last 10812102.946538
attr source sum(fwdCurrentCacheSizeBytes)/sum(fwdCurrentCacheSizeReportedCount)
attr title "Average Cache Size, last"
attr unit byte
scalar OPSHeraldNetwork.host[7] fwdCacheBytesUpdated:last 6853773
attr source sum(fwdCacheBytesUpdated)
attr title "Cache Updates, last"
attr unit byte
scalar OPSHeraldNetwork.host[7] fwdCacheBytesAdded:last 22829706
attr source sum(fwdCacheBytesAdded)
attr title "Cache Additions, last"
attr unit byte
scalar OPSHeraldNetwork.host[7] fwdCacheBytesRemoved:last -nan
attr source sum(fwdCacheBytesRemoved)
attr title "Cache Removals, last"
attr unit byte
scalar OPSHeraldNetwork.host[7] fwdAvgHopsTravelled:last 4.092876465284
attr source sum(fwdHopsTravelled)/sum(fwdHopsTravelledCount)
attr title "Average Hops Travelled, last"
scalar OPSHeraldNetwork.host[7] fwdTotalBytesReceived:last 29218916
attr source sum(fwdTotalBytesReceived)
attr title "Total Received, last"
attr unit byte
scalar OPSHeraldNetwork.host[7] fwdDPTableDataBytesReceived:last -nan
attr source sum(fwdDPTableDataBytesReceived)
attr title "DP Table Data Received, last"
attr unit byte
scalar OPSHeraldNetwork.host[7] fwdDPTableRequestBytesReceived:last -nan
attr source sum(fwdDPTableRequestBytesReceived)
attr title "DP Table Requests Received, last"
attr unit byte
scalar OPSHeraldNetwork.host[7] fwdDataReqBytesReceived:last 1344
attr source sum(fwdDataReqBytesReceived)
attr title "Data Requests Received, last"
attr unit byte
scalar OPSHeraldNetwork.host[7] fwdSumVecBytesReceived:last 233432
attr source sum(fwdSumVecBytesReceived)
attr title "Summary Vectors Received, last"
attr unit byte
scalar OPSHeraldNetwork.host[7] fwdDataBytesReceived:last 28984140
attr source sum(fwdDataBytesReceived)
attr title "Data Received, last"
attr unit byte
scalar OPSHeraldNetwork.host[7] appTotalDataCountReceived2:last 855
attr source sum(appTotalDataCountReceived2)
scalar OPSHeraldNetwork.host[7] appTotalDataBytesReceived2:last 22102642
attr source sum(appTotalDataBytesReceived2)
scalar OPSHeraldNetwork.host[7] appTotalDataReceivedDelay2:mean 148496.3564451
attr source appTotalDataReceivedDelay2
scalar OPSHeraldNetwork.host[7] appNonLikedDataReceivedDelay2:mean 146746.50572436
attr source appNonLikedDataReceivedDelay2
scalar OPSHeraldNetwork.host[7] appLikedDataReceivedDelay2:mean 153770.55439211
attr source appLikedDataReceivedDelay2
scalar OPSHeraldNetwork.host[7] appTotalDataAvgHopCount:last 4.0046783625731
attr source sum(appTotalDataHopsForAvgHopsComp)/sum(appTotalDataHopsCountForAvgHopsComp)
scalar OPSHeraldNetwork.host[7] appNonLikedDataAvgHopCount:last 3.9953271028037
attr source sum(appNonLikedDataHopsForAvgHopsComp)/sum(appNonLikedDataHopsCountForAvgHopsComp)
scalar OPSHeraldNetwork.host[7] appLikedDataAvgHopCount:last 4.0328638497653
attr source sum(appLikedDataHopsForAvgHopsComp)/sum(appLikedDataHopsCountForAvgHopsComp)
scalar OPSHeraldNetwork.host[7] appTotalDataDeliveryRatio:last 0.50087873462214
attr source sum(appTotalDataCountReceivedForRatioComp)/sum(appTotalDataCountMaxReceivableForRatioComp)
scalar OPSHeraldNetwork.host[7] appNonLikedDataDeliveryRatio:last 0.50352941176471
attr source sum(appNonLikedDataCountReceivedForRatioComp)/sum(appNonLikedDataCountMaxReceivableForRatioComp)
scalar OPSHeraldNetwork.host[7] appLikedDataDeliveryRatio:last 0.49305555555556
attr source sum(appLikedDataCountReceivedForRatioComp)/sum(appLikedDataCountMaxReceivableForRatioComp)
scalar OPSHeraldNetwork.host[7] appTotalDataReceivedAvgDelay:last 148496.3564451
attr source sum(appTotalDataReceivedDelay)/sum(appTotalDataCountReceivedForAvgDelayComp)
scalar OPSHeraldNetwork.host[7] appNonLikedDataReceivedAvgDelay:last 146746.50572436
attr source sum(appNonLikedDataReceivedDelay)/sum(appNonLikedDataCountReceivedForAvgDelayComp)
scalar OPSHeraldNetwork.host[7] appLikedDataReceivedAvgDelay:last 153770.55439211
attr source sum(appLikedDataReceivedDelay)/sum(appLikedDataCountReceivedForAvgDelayComp)
scalar OPSHeraldNetwork.host[7] appTotalDataCountMaxReceivable:last 1707
attr source sum(appTotalDataCountMaxReceivable)
scalar OPSHeraldNetwork.host[7] appNonLikedDataCountMaxReceivable:last 1275
attr source sum(appNonLikedDataCountMaxReceivable)
scalar OPSHeraldNetwork.host[7] appLikedDataCountMaxReceivable:last 432
attr source sum(appLikedDataCountMaxReceivable)
scalar OPSHeraldNetwork.host[7] appTotalDataBytesMaxReceivable:last 43456592
attr source sum(appTotalDataBytesMaxReceivable)
scalar OPSHeraldNetwork.host[7] appNonLikedDataBytesMaxReceivable:last 32362547
attr source sum(appNonLikedDataBytesMaxReceivable)
scalar OPSHeraldNetwork.host[7] appLikedDataBytesMaxReceivable:last 11094045
attr source sum(appLikedDataBytesMaxReceivable)
scalar OPSHeraldNetwork.host[7] appTotalDataCountReceived:last 1109
attr source sum(appTotalDataCountReceived)
scalar OPSHeraldNetwork.host[7] appDuplicateDataCountReceived:last 254
attr source sum(appDuplicateDataCountReceived)
scalar OPSHeraldNetwork.host[7] appNonLikedDataCountReceived:last 642
attr source sum(appNonLikedDataCountReceived)
scalar OPSHeraldNetwork.host[7] appLikedDataCountReceived:last 213
attr source sum(appLikedDataCountReceived)
scalar OPSHeraldNetwork.host[7] appTotalDataBytesReceived:last 28956415
attr source sum(appTotalDataBytesReceived)
scalar OPSHeraldNetwork.host[7] appDuplicateDataBytesReceived:last 6853773
attr source sum(appDuplicateDataBytesReceived)
scalar OPSHeraldNetwork.host[7] appNonLikedDataBytesReceived:last 16709714
attr source sum(appNonLikedDataBytesReceived)
scalar OPSHeraldNetwork.host[7] appLikedDataBytesReceived:last 5392928
attr source sum(appLikedDataBytesReceived)
scalar OPSHeraldNetwork.host[8].forwarding numEventsHandled 50302
scalar OPSHeraldNetwork.host[8] linkSimpleNeighbourSize:mean 0.25493551587302
attr source linkSimpleNeighSize
attr title "Simple Neighbour Size, mean"
scalar OPSHeraldNetwork.host[8] linkContactCount:last 13
attr source sum(linkContactCount)
attr title "Contact Count, last"
scalar OPSHeraldNetwork.host[8] linkAvgContactDuration:last 3115.7692307692
attr source sum(linkContactDuration)/sum(linkContactDurationCount)
attr title "Average Contact Duration, last"
attr unit s
scalar OPSHeraldNetwork.host[8] linkAvgNeighbourSize:last 0.25493551587302
attr source sum(linkNeighSize)/sum(linkNeighSizeCount)
attr title "Average Neighbour Size, last"
scalar OPSHeraldNetwork.host[8] fwdTotalBytesSent:last 35384725
attr source sum(fwdTotalBytesSent)
attr title "Total Sent, last"
attr unit byte
scalar OPSHeraldNetwork.host[8] fwdDPTableDataBytesSent:last -nan
attr source sum(fwdDPTableDataBytesSent)
attr title "DP Table Data Sent, last"
attr unit byte
scalar OPSHeraldNetwork.host[8] fwdDPTableRequestBytesSent:last -nan
attr source sum(fwdDPTableRequestBytesSent)
attr title "DP Table Requests Sent, last"
attr unit byte
scalar OPSHeraldNetwork.host[8] fwdDataReqBytesSent:last 103232
attr source sum(fwdDataReqBytesSent)
attr title "Data Requests Sent, last"
attr unit byte
scalar OPSHeraldNetwork.host[8] fwdSumVecBytesSent:last 983088
attr source sum(fwdSumVecBytesSent)
attr title "Summary Vectors Sent, last"
attr unit byte
scalar OPSHeraldNetwork.host[8] fwdDataBytesSent:last 34298405
attr source sum(fwdDataBytesSent)
attr title "Data Sent, last"
attr unit byte
scalar OPSHeraldNetwork.host[8] fwdCurrentCacheSizeBytes2:last 22332716
attr source fwdCurrentCacheSizeBytes2
attr title "Cache Size, last"
attr unit byte
scalar OPSHeraldNetwork.host[8] fwdCurrentCacheSizeBytes2:mean 10637969.679965
attr source fwdCurrentCacheSizeBytes2
attr title "Cache Size, mean"
attr unit byte
scalar OPSHeraldNetwork.host[8] fwdCurrentCacheSizeBytesPeriodic:last 22332716
attr source fwdCurrentCacheSizeBytesPeriodic
attr title "Periodic Cache Size, last"
attr unit byte
scalar OPSHeraldNetwork.host[8] fwdCurrentCacheSizeBytesPeriodic:mean 9252428.0957341
attr source fwdCurrentCacheSizeBytesPeriodic
attr title "Periodic Cache Size, mean"
attr unit byte
scalar OPSHeraldNetwork.host[8] fwdCurrentCacheSizeBytesAvg:last 10637969.679965
attr source sum(fwdCurrentCacheSizeBytes)/sum(fwdCurrentCacheSizeReportedCount)
attr title "Average Cache Size, last"
attr unit byte
scalar OPSHeraldNetwork.host[8] fwdCacheBytesUpdated:last 7663355
attr source sum(fwdCacheBytesUpdated)
attr title "Cache Updates, last"
attr unit byte
scalar OPSHeraldNetwork.host[8] fwdCacheBytesAdded:last 22332716
attr source sum(fwdCacheBytesAdded)
attr title "Cache Additions, last"
attr unit byte
scalar OPSHeraldNetwork.host[8] fwdCacheBytesRemoved:last -nan
attr source sum(fwdCacheBytesRemoved)
attr title "Cache Removals, last"
attr unit byte
scalar OPSHeraldNetwork.host[8] fwdAvgHopsTravelled:last 3.5552584670232
attr source sum(fwdHopsTravelled)/sum(fwdHopsTravelledCount)
attr title "Average Hops Travelled, last"
scalar OPSHeraldNetwork.host[8] fwdTotalBytesReceived:last 32535028
attr source sum(fwdTotalBytesReceived)
attr title "Total Received, last"
attr unit byte
scalar OPSHeraldNetwork.host[8] fwdDPTableDataBytesReceived:last -nan
attr source sum(fwdDPTableDataBytesReceived)
attr title "DP Table Data Received, last"
attr unit byte
scalar OPSHeraldNetwork.host[8] fwdDPTableRequestBytesReceived:last -nan
attr source sum(fwdDPTableRequestBytesReceived)
attr title "DP Table Requests Received, last"
attr unit byte
scalar OPSHeraldNetwork.host[8] fwdDataReqBytesReceived:last 8332
attr source sum(fwdDataReqBytesReceived)
attr title "Data Requests Received, last"
attr unit byte
scalar OPSHeraldNetwork.host[8] fwdSumVecBytesReceived:last 3346012
attr source sum(fwdSumVecBytesReceived)
attr title "Summary Vectors Received, last"
attr unit byte
scalar OPSHeraldNetwork.host[8] fwdDataBytesReceived:last 29180684
attr source sum(fwdDataBytesReceived)
attr title "Data Received, last"
attr unit byte
scalar OPSHeraldNetwork.host[8] appTotalDataCountReceived2:last 838
attr source sum(appTotalDataCountReceived2)
scalar OPSHeraldNetwork.host[8] appTotalDataBytesReceived2:last 21489279
attr source sum(appTotalDataBytesReceived2)
scalar OPSHeraldNetwork.host[8] appTotalDataReceivedDelay2:mean 123353.68952678
attr source appTotalDataReceivedDelay2
scalar OPSHeraldNetwork.host[8] appNonLikedDataReceivedDelay2:mean 121773.51076782
attr source appNonLikedDataReceivedDelay2
scalar OPSHeraldNetwork.host[8] appLikedDataReceivedDelay2:mean 128109.34713148
attr source appLikedDataReceivedDelay2
scalar OPSHeraldNetwork.host[8] appTotalDataAvgHopCount:last 3.4868735083532
attr source sum(appTotalDataHopsForAvgHopsComp)/sum(appTotalDataHopsCountForAvgHopsComp)
scalar OPSHeraldNetwork.host[8] appNonLikedDataAvgHopCount:last 3.4689984101749
attr source sum(appNonLikedDataHopsForAvgHopsComp)/sum(appNonLikedDataHopsCountForAvgHopsComp)
scalar OPSHeraldNetwork.host[8] appLikedDataAvgHopCount:last 3.5406698564593
attr source sum(appLikedDataHopsForAvgHopsComp)/sum(appLikedDataHopsCountForAvgHopsComp)
scalar OPSHeraldNetwork.host[8] appTotalDataDeliveryRatio:last 0.49063231850117
attr source sum(appTotalDataCountReceivedForRatioComp)/sum(appTotalDataCountMaxReceivableForRatioComp)
scalar OPSHeraldNetwork.host[8] appNonLikedDataDeliveryRatio:last 0.49217527386541
attr source sum(appNonLikedDataCountReceivedForRatioComp)/sum(appNonLikedDataCountMaxReceivableForRatioComp)
scalar OPSHeraldNetwork.host[8] appLikedDataDeliveryRatio:last 0.48604651162791
attr source sum(appLikedDataCountReceivedForRatioComp)/sum(appLikedDataCountMaxReceivableForRatioComp)
scalar OPSHeraldNetwork.host[8] appTotalDataReceivedAvgDelay:last 123353.68952678
attr source sum(appTotalDataReceivedDelay)/sum(appTotalDataCountReceivedForAvgDelayComp)
scalar OPSHeraldNetwork.host[8] appNonLikedDataReceivedAvgDelay:last 121773.51076782
attr source sum(appNonLikedDataReceivedDelay)/sum(appNonLikedDataCountReceivedForAvgDelayComp)
scalar OPSHeraldNetwork.host[8] appLikedDataReceivedAvgDelay:last 128109.34713148
attr source sum(appLikedDataReceivedDelay)/sum(appLikedDataCountReceivedForAvgDelayComp)
scalar OPSHeraldNetwork.host[8] appTotalDataCountMaxReceivable:last 1708
attr source sum(appTotalDataCountMaxReceivable)
scalar OPSHeraldNetwork.host[8] appNonLikedDataCountMaxReceivable:last 1278
attr source sum(appNonLikedDataCountMaxReceivable)
scalar OPSHeraldNetwork.host[8] appLikedDataCountMaxReceivable:last 430
attr source sum(appLikedDataCountMaxReceivable)
scalar OPSHeraldNetwork.host[8] appTotalDataBytesMaxReceivable:last 43340219
attr source sum(appTotalDataBytesMaxReceivable)
scalar OPSHeraldNetwork.host[8] appNonLikedDataBytesMaxReceivable:last 32322664
attr source sum(appNonLikedDataBytesMaxReceivable)
scalar OPSHeraldNetwork.host[8] appLikedDataBytesMaxReceivable:last 11017555
attr source sum(appLikedDataBytesMaxReceivable)
scalar OPSHeraldNetwork.host[8] appTotalDataCountReceived:last 1122
attr source sum(appTotalDataCountReceived)
scalar OPSHeraldNetwork.host[8] appDuplicateDataCountReceived:last 284
attr source sum(appDuplicateDataCountReceived)
scalar OPSHeraldNetwork.host[8] appNonLikedDataCountReceived:last 629
attr source sum(appNonLikedDataCountReceived)
scalar OPSHeraldNetwork.host[8] appLikedDataCountReceived:last 209
attr source sum(appLikedDataCountReceived)
scalar OPSHeraldNetwork.host[8] appTotalDataBytesReceived:last 29152634
attr source sum(appTotalDataBytesReceived)
scalar OPSHeraldNetwork.host[8] appDuplicateDataBytesReceived:last 7663355
attr source sum(appDuplicateDataBytesReceived)
scalar OPSHeraldNetwork.host[8] appNonLikedDataBytesReceived:last 16201684
attr source sum(appNonLikedDataBytesReceived)
scalar OPSHeraldNetwork.host[8] appLikedDataBytesReceived:last 5287595
attr source sum(appLikedDataBytesReceived)
scalar OPSHeraldNetwork.host[9].forwarding numEventsHandled 49912
scalar OPSHeraldNetwork.host[9] linkSimpleNeighbourSize:mean 0.2450248015873
attr source linkSimpleNeighSize
attr title "Simple Neighbour Size, mean"
scalar OPSHeraldNetwork.host[9] linkContactCount:last 12
attr source sum(linkContactCount)
attr title "Contact Count, last"
scalar OPSHeraldNetwork.host[9] linkAvgContactDuration:last 2651.3333333333
attr source sum(linkContactDuration)/sum(linkContactDurationCount)
attr title "Average Contact Duration, last"
attr unit s
scalar OPSHeraldNetwork.host[9] linkAvgNeighbourSize:last 0.2450248015873
attr source sum(linkNeighSize)/sum(linkNeighSizeCount)
attr title "Average Neighbour Size, last"
scalar OPSHeraldNetwork.host[9] fwdTotalBytesSent:last 21047343
attr source sum(fwdTotalBytesSent)
attr title "Total Sent, last"
attr unit byte
scalar OPSHeraldNetwork.host[9] fwdDPTableDataBytesSent:last -nan
attr source sum(fwdDPTableDataBytesSent)
attr title "DP Table Data Sent, last"
attr unit byte
scalar OPSHeraldNetwork.host[9] fwdDPTableRequestBytesSent:last -nan
attr source sum(fwdDPTableRequestBytesSent)
attr title "DP Table Requests Sent, last"
attr unit byte
scalar OPSHeraldNetwork.host[9] fwdDataReqBytesSent:last 396392
attr source sum(fwdDataReqBytesSent)
attr title "Data Requests Sent, last"
attr unit byte
scalar OPSHeraldNetwork.host[9] fwdSumVecBytesSent:last 820692
attr source sum(fwdSumVecBytesSent)
attr title "Summary Vectors Sent, last"
attr unit byte
scalar OPSHeraldNetwork.host[9] fwdDataBytesSent:last 19830259
attr source sum(fwdDataBytesSent)
attr title "Data Sent, last"
attr unit byte
scalar OPSHeraldNetwork.host[9] fwdCurrentCacheSizeBytes2:last 24346086
attr source fwdCurrentCacheSizeBytes2
attr title "Cache Size, last"
attr unit byte
scalar OPSHeraldNetwork.host[9] fwdCurrentCacheSizeBytes2:mean 10523254.622291
attr source fwdCurrentCacheSizeBytes2
attr title "Cache Size, mean"
attr unit byte
scalar OPSHeraldNetwork.host[9] fwdCurrentCacheSizeBytesPeriodic:last 24346086
attr source fwdCurrentCacheSizeBytesPeriodic
attr title "Periodic Cache Size, last"
attr unit byte
scalar OPSHeraldNetwork.host[9] fwdCurrentCacheSizeBytesPeriodic:mean 8001655.3134921
attr source fwdCurrentCacheSizeBytesPeriodic
attr title "Periodic Cache Size, mean"
attr unit byte
scalar OPSHeraldNetwork.host[9] fwdCurrentCacheSizeBytesAvg:last 10523254.622291
attr source sum(fwdCurrentCacheSizeBytes)/sum(fwdCurrentCacheSizeReportedCount)
attr title "Average Cache Size, last"
attr unit byte
scalar OPSHeraldNetwork.host[9] fwdCacheBytesUpdated:last 9781734
attr source sum(fwdCacheBytesUpdated)
attr title "Cache Updates, last"
attr unit byte
scalar OPSHeraldNetwork.host[9] fwdCacheBytesAdded:last 24346086
attr source sum(fwdCacheBytesAdded)
attr title "Cache Additions, last"
attr unit byte
scalar OPSHeraldNetwork.host[9] fwdCacheBytesRemoved:last -nan
attr source sum(fwdCacheBytesRemoved)
attr title "Cache Removals, last"
attr unit byte
scalar OPSHeraldNetwork.host[9] fwdAvgHopsTravelled:last 3.5590800951626
attr source sum(fwdHopsTravelled)/sum(fwdHopsTravelledCount)
attr title "Average Hops Travelled, last"
scalar OPSHeraldNetwork.host[9] fwdTotalBytesReceived:last 36853583
attr source sum(fwdTotalBytesReceived)
attr title "Total Received, last"
attr unit byte
scalar OPSHeraldNetwork.host[9] fwdDPTableDataBytesReceived:last -nan
attr source sum(fwdDPTableDataBytesReceived)
attr title "DP Table Data Received, last"
attr unit byte
scalar OPSHeraldNetwork.host[9] fwdDPTableRequestBytesReceived:last -nan
attr source sum(fwdDPTableRequestBytesReceived)
attr title "DP Table Requests Received, last"
attr unit byte
scalar OPSHeraldNetwork.host[9] fwdDataReqBytesReceived:last 6116
attr source sum(fwdDataReqBytesReceived)
attr title "Data Requests Received, last"
attr unit byte
scalar OPSHeraldNetwork.host[9] fwdSumVecBytesReceived:last 3514116
attr source sum(fwdSumVecBytesReceived)
attr title "Summary Vectors Received, last"
attr unit byte
scalar OPSHeraldNetwork.host[9] fwdDataBytesReceived:last 33333351
attr source sum(fwdDataBytesReceived)
attr title "Data Received, last"
attr unit byte
scalar OPSHeraldNetwork.host[9] appTotalDataCountReceived2:last 925
attr source sum(appTotalDataCountReceived2)
scalar OPSHeraldNetwork.host[9] appTotalDataBytesReceived2:last 23520092
attr source sum(appTotalDataBytesReceived2)
scalar OPSHeraldNetwork.host[9] appTotalDataReceivedDelay2:mean 149936.13982495
attr source appTotalDataReceivedDelay2
scalar OPSHeraldNetwork.host[9] appNonLikedDataReceivedDelay2:mean 148302.49135687
attr source appNonLikedDataReceivedDelay2
scalar OPSHeraldNetwork.host[9] appLikedDataReceivedDelay2:mean 154732.80979506
attr source appLikedDataReceivedDelay2
scalar OPSHeraldNetwork.host[9] appTotalDataAvgHopCount:last 3.4875675675676
attr source sum(appTotalDataHopsForAvgHopsComp)/sum(appTotalDataHopsCountForAvgHopsComp)
scalar OPSHeraldNetwork.host[9] appNonLikedDataAvgHopCount:last 3.4768115942029
attr source sum(appNonLikedDataHopsForAvgHopsComp)/sum(appNonLikedDataHopsCountForAvgHopsComp)
scalar OPSHeraldNetwork.host[9] appLikedDataAvgHopCount:last 3.5191489361702
attr source sum(appLikedDataHopsForAvgHopsComp)/sum(appLikedDataHopsCountForAvgHopsComp)
scalar OPSHeraldNetwork.host[9] appTotalDataDeliveryRatio:last 0.54156908665105
attr source sum(appTotalDataCountReceivedForRatioComp)/sum(appTotalDataCountMaxReceivableForRatioComp)
scalar OPSHeraldNetwork.host[9] appNonLikedDataDeliveryRatio:last 0.54202670856245
attr source sum(appNonLikedDataCountReceivedForRatioComp)/sum(appNonLikedDataCountMaxReceivableForRatioComp)
scalar OPSHeraldNetwork.host[9] appLikedDataDeliveryRatio:last 0.54022988505747
attr source sum(appLikedDataCountReceivedForRatioComp)/sum(appLikedDataCountMaxReceivableForRatioComp)
scalar OPSHeraldNetwork.host[9] appTotalDataReceivedAvgDelay:last 149936.13982495
attr source sum(appTotalDataReceivedDelay)/sum(appTotalDataCountReceivedForAvgDelayComp)
scalar OPSHeraldNetwork.host[9] appNonLikedDataReceivedAvgDelay:last 148302.49135687
attr source sum(appNonLikedDataReceivedDelay)/sum(appNonLikedDataCountReceivedForAvgDelayComp)
scalar OPSHeraldNetwork.host[9] appLikedDataReceivedAvgDelay:last 154732.80979506
attr source sum(appLikedDataReceivedDelay)/sum(appLikedDataCountReceivedForAvgDelayComp)
scalar OPSHeraldNetwork.host[9] appTotalDataCountMaxReceivable:last 1708
attr source sum(appTotalDataCountMaxReceivable)
scalar OPSHeraldNetwork.host[9] appNonLikedDataCountMaxReceivable:last 1273
attr source sum(appNonLikedDataCountMaxReceivable)
scalar OPSHeraldNetwork.host[9] appLikedDataCountMaxReceivable:last 435
attr source sum(appLikedDataCountMaxReceivable)
scalar OPSHeraldNetwork.host[9] appTotalDataBytesMaxReceivable:last 43357662
attr source sum(appTotalDataBytesMaxReceivable)
scalar OPSHeraldNetwork.host[9] appNonLikedDataBytesMaxReceivable:last 32252047
[...]
attr source sum(fwdDPTableDataBytesReceived)
attr title "DP Table Data Received, last"
attr unit byte
scalar OPSHeraldNetwork.host[52] fwdDPTableRequestBytesReceived:last -nan
attr source sum(fwdDPTableRequestBytesReceived)
attr title "DP Table Requests Received, last"
attr unit byte
scalar OPSHeraldNetwork.host[52] fwdDataReqBytesReceived:last -nan
attr source sum(fwdDataReqBytesReceived)
attr title "Data Requests Received, last"
attr unit byte
scalar OPSHeraldNetwork.host[52] fwdSumVecBytesReceived:last -nan
attr source sum(fwdSumVecBytesReceived)
attr title "Summary Vectors Received, last"
attr unit byte
scalar OPSHeraldNetwork.host[52] fwdDataBytesReceived:last -nan
attr source sum(fwdDataBytesReceived)
attr title "Data Received, last"
attr unit byte
scalar OPSHeraldNetwork.host[52] appTotalDataCountReceived2:last -nan
attr source sum(appTotalDataCountReceived2)
scalar OPSHeraldNetwork.host[52] appTotalDataBytesReceived2:last -nan
attr source sum(appTotalDataBytesReceived2)
scalar OPSHeraldNetwork.host[52] appTotalDataReceivedDelay2:mean -nan
attr source appTotalDataReceivedDelay2
scalar OPSHeraldNetwork.host[52] appNonLikedDataReceivedDelay2:mean -nan
attr source appNonLikedDataReceivedDelay2
scalar OPSHeraldNetwork.host[52] appLikedDataReceivedDelay2:mean -nan
attr source appLikedDataReceivedDelay2
scalar OPSHeraldNetwork.host[52] appTotalDataAvgHopCount:last -nan
attr source sum(appTotalDataHopsForAvgHopsComp)/sum(appTotalDataHopsCountForAvgHopsComp)
scalar OPSHeraldNetwork.host[52] appNonLikedDataAvgHopCount:last -nan
attr source sum(appNonLikedDataHopsForAvgHopsComp)/sum(appNonLikedDataHopsCountForAvgHopsComp)
scalar OPSHeraldNetwork.host[52] appLikedDataAvgHopCount:last -nan
attr source sum(appLikedDataHopsForAvgHopsComp)/sum(appLikedDataHopsCountForAvgHopsComp)
scalar OPSHeraldNetwork.host[52] appTotalDataDeliveryRatio:last -nan
attr source sum(appTotalDataCountReceivedForRatioComp)/sum(appTotalDataCountMaxReceivableForRatioComp)
scalar OPSHeraldNetwork.host[52] appNonLikedDataDeliveryRatio:last -nan
attr source sum(appNonLikedDataCountReceivedForRatioComp)/sum(appNonLikedDataCountMaxReceivableForRatioComp)
scalar OPSHeraldNetwork.host[52] appLikedDataDeliveryRatio:last -nan
attr source sum(appLikedDataCountReceivedForRatioComp)/sum(appLikedDataCountMaxReceivableForRatioComp)
scalar OPSHeraldNetwork.host[52] appTotalDataReceivedAvgDelay:last -nan
attr source sum(appTotalDataReceivedDelay)/sum(appTotalDataCountReceivedForAvgDelayComp)
scalar OPSHeraldNetwork.host[52] appNonLikedDataReceivedAvgDelay:last -nan
attr source sum(appNonLikedDataReceivedDelay)/sum(appNonLikedDataCountReceivedForAvgDelayComp)
scalar OPSHeraldNetwork.host[52] appLikedDataReceivedAvgDelay:last -nan
attr source sum(appLikedDataReceivedDelay)/sum(appLikedDataCountReceivedForAvgDelayComp)
scalar OPSHeraldNetwork.host[52] appTotalDataCountMaxReceivable:last 1705
attr source sum(appTotalDataCountMaxReceivable)
scalar OPSHeraldNetwork.host[52] appNonLikedDataCountMaxReceivable:last 1275
attr source sum(appNonLikedDataCountMaxReceivable)
scalar OPSHeraldNetwork.host[52] appLikedDataCountMaxReceivable:last 430
attr source sum(appLikedDataCountMaxReceivable)
scalar OPSHeraldNetwork.host[52] appTotalDataBytesMaxReceivable:last 43267506
attr source sum(appTotalDataBytesMaxReceivable)
scalar OPSHeraldNetwork.host[52] appNonLikedDataBytesMaxReceivable:last 32298197
attr source sum(appNonLikedDataBytesMaxReceivable)
scalar OPSHeraldNetwork.host[52] appLikedDataBytesMaxReceivable:last 10969309
attr source sum(appLikedDataBytesMaxReceivable)
scalar OPSHeraldNetwork.host[52] appTotalDataCountReceived:last -nan
attr source sum(appTotalDataCountReceived)
scalar OPSHeraldNetwork.host[52] appDuplicateDataCountReceived:last -nan
attr source sum(appDuplicateDataCountReceived)
scalar OPSHeraldNetwork.host[52] appNonLikedDataCountReceived:last -nan
attr source sum(appNonLikedDataCountReceived)
scalar OPSHeraldNetwork.host[52] appLikedDataCountReceived:last -nan
attr source sum(appLikedDataCountReceived)
scalar OPSHeraldNetwork.host[52] appTotalDataBytesReceived:last -nan
attr source sum(appTotalDataBytesReceived)
scalar OPSHeraldNetwork.host[52] appDuplicateDataBytesReceived:last -nan
attr source sum(appDuplicateDataBytesReceived)
scalar OPSHeraldNetwork.host[52] appNonLikedDataBytesReceived:last -nan
attr source sum(appNonLikedDataBytesReceived)
scalar OPSHeraldNetwork.host[52] appLikedDataBytesReceived:last -nan
attr source sum(appLikedDataBytesReceived)
scalar OPSHeraldNetwork.host[53].forwarding numEventsHandled 7936
scalar OPSHeraldNetwork.host[53] linkSimpleNeighbourSize:mean 0.0029960317460317
attr source linkSimpleNeighSize
attr title "Simple Neighbour Size, mean"
scalar OPSHeraldNetwork.host[53] linkContactCount:last 29
attr source sum(linkContactCount)
attr title "Contact Count, last"
scalar OPSHeraldNetwork.host[53] linkAvgContactDuration:last 62.48275862069
attr source sum(linkContactDuration)/sum(linkContactDurationCount)
attr title "Average Contact Duration, last"
attr unit s
scalar OPSHeraldNetwork.host[53] linkAvgNeighbourSize:last 0.0029960317460317
attr source sum(linkNeighSize)/sum(linkNeighSizeCount)
attr title "Average Neighbour Size, last"
scalar OPSHeraldNetwork.host[53] fwdTotalBytesSent:last 9005
attr source sum(fwdTotalBytesSent)
attr title "Total Sent, last"
attr unit byte
scalar OPSHeraldNetwork.host[53] fwdDPTableDataBytesSent:last -nan
attr source sum(fwdDPTableDataBytesSent)
attr title "DP Table Data Sent, last"
attr unit byte
scalar OPSHeraldNetwork.host[53] fwdDPTableRequestBytesSent:last -nan
attr source sum(fwdDPTableRequestBytesSent)
attr title "DP Table Requests Sent, last"
attr unit byte
scalar OPSHeraldNetwork.host[53] fwdDataReqBytesSent:last 1336
attr source sum(fwdDataReqBytesSent)
attr title "Data Requests Sent, last"
attr unit byte
scalar OPSHeraldNetwork.host[53] fwdSumVecBytesSent:last 1220
attr source sum(fwdSumVecBytesSent)
attr title "Summary Vectors Sent, last"
attr unit byte
scalar OPSHeraldNetwork.host[53] fwdDataBytesSent:last 6449
attr source sum(fwdDataBytesSent)
attr title "Data Sent, last"
attr unit byte
scalar OPSHeraldNetwork.host[53] fwdCurrentCacheSizeBytes2:last 1522742
attr source fwdCurrentCacheSizeBytes2
attr title "Cache Size, last"
attr unit byte
scalar OPSHeraldNetwork.host[53] fwdCurrentCacheSizeBytes2:mean 739937.80327869
attr source fwdCurrentCacheSizeBytes2
attr title "Cache Size, mean"
attr unit byte
scalar OPSHeraldNetwork.host[53] fwdCurrentCacheSizeBytesPeriodic:last 1522742
attr source fwdCurrentCacheSizeBytesPeriodic
attr title "Periodic Cache Size, last"
attr unit byte
scalar OPSHeraldNetwork.host[53] fwdCurrentCacheSizeBytesPeriodic:mean 1088003.9695767
attr source fwdCurrentCacheSizeBytesPeriodic
attr title "Periodic Cache Size, mean"
attr unit byte
scalar OPSHeraldNetwork.host[53] fwdCurrentCacheSizeBytesAvg:last 739937.80327869
attr source sum(fwdCurrentCacheSizeBytes)/sum(fwdCurrentCacheSizeReportedCount)
attr title "Average Cache Size, last"
attr unit byte
scalar OPSHeraldNetwork.host[53] fwdCacheBytesUpdated:last -nan
attr source sum(fwdCacheBytesUpdated)
attr title "Cache Updates, last"
attr unit byte
scalar OPSHeraldNetwork.host[53] fwdCacheBytesAdded:last 1522742
attr source sum(fwdCacheBytesAdded)
attr title "Cache Additions, last"
attr unit byte
scalar OPSHeraldNetwork.host[53] fwdCacheBytesRemoved:last -nan
attr source sum(fwdCacheBytesRemoved)
attr title "Cache Removals, last"
attr unit byte
scalar OPSHeraldNetwork.host[53] fwdAvgHopsTravelled:last 3.4285714285714
attr source sum(fwdHopsTravelled)/sum(fwdHopsTravelledCount)
attr title "Average Hops Travelled, last"
scalar OPSHeraldNetwork.host[53] fwdTotalBytesReceived:last 659299
attr source sum(fwdTotalBytesReceived)
attr title "Total Received, last"
attr unit byte
scalar OPSHeraldNetwork.host[53] fwdDPTableDataBytesReceived:last -nan
attr source sum(fwdDPTableDataBytesReceived)
attr title "DP Table Data Received, last"
attr unit byte
scalar OPSHeraldNetwork.host[53] fwdDPTableRequestBytesReceived:last -nan
attr source sum(fwdDPTableRequestBytesReceived)
attr title "DP Table Requests Received, last"
attr unit byte
scalar OPSHeraldNetwork.host[53] fwdDataReqBytesReceived:last 40
attr source sum(fwdDataReqBytesReceived)
attr title "Data Requests Received, last"
attr unit byte
scalar OPSHeraldNetwork.host[53] fwdSumVecBytesReceived:last 2248
attr source sum(fwdSumVecBytesReceived)
attr title "Summary Vectors Received, last"
attr unit byte
scalar OPSHeraldNetwork.host[53] fwdDataBytesReceived:last 657011
attr source sum(fwdDataBytesReceived)
attr title "Data Received, last"
attr unit byte
scalar OPSHeraldNetwork.host[53] appTotalDataCountReceived2:last 28
attr source sum(appTotalDataCountReceived2)
scalar OPSHeraldNetwork.host[53] appTotalDataBytesReceived2:last 656311
attr source sum(appTotalDataBytesReceived2)
scalar OPSHeraldNetwork.host[53] appTotalDataReceivedDelay2:mean 10822.937337143
attr source appTotalDataReceivedDelay2
scalar OPSHeraldNetwork.host[53] appNonLikedDataReceivedDelay2:mean 11010.220616667
attr source appNonLikedDataReceivedDelay2
scalar OPSHeraldNetwork.host[53] appLikedDataReceivedDelay2:mean 9699.23766
attr source appLikedDataReceivedDelay2
scalar OPSHeraldNetwork.host[53] appTotalDataAvgHopCount:last 3.4285714285714
attr source sum(appTotalDataHopsForAvgHopsComp)/sum(appTotalDataHopsCountForAvgHopsComp)
scalar OPSHeraldNetwork.host[53] appNonLikedDataAvgHopCount:last 3.5416666666667
attr source sum(appNonLikedDataHopsForAvgHopsComp)/sum(appNonLikedDataHopsCountForAvgHopsComp)
scalar OPSHeraldNetwork.host[53] appLikedDataAvgHopCount:last 2.75
attr source sum(appLikedDataHopsForAvgHopsComp)/sum(appLikedDataHopsCountForAvgHopsComp)
scalar OPSHeraldNetwork.host[53] appTotalDataDeliveryRatio:last 0.01641266119578
attr source sum(appTotalDataCountReceivedForRatioComp)/sum(appTotalDataCountMaxReceivableForRatioComp)
scalar OPSHeraldNetwork.host[53] appNonLikedDataDeliveryRatio:last 0.01885310290652
attr source sum(appNonLikedDataCountReceivedForRatioComp)/sum(appNonLikedDataCountMaxReceivableForRatioComp)
scalar OPSHeraldNetwork.host[53] appLikedDataDeliveryRatio:last 0.0092378752886836
attr source sum(appLikedDataCountReceivedForRatioComp)/sum(appLikedDataCountMaxReceivableForRatioComp)
scalar OPSHeraldNetwork.host[53] appTotalDataReceivedAvgDelay:last 10822.937337143
attr source sum(appTotalDataReceivedDelay)/sum(appTotalDataCountReceivedForAvgDelayComp)
scalar OPSHeraldNetwork.host[53] appNonLikedDataReceivedAvgDelay:last 11010.220616667
attr source sum(appNonLikedDataReceivedDelay)/sum(appNonLikedDataCountReceivedForAvgDelayComp)
scalar OPSHeraldNetwork.host[53] appLikedDataReceivedAvgDelay:last 9699.23766
attr source sum(appLikedDataReceivedDelay)/sum(appLikedDataCountReceivedForAvgDelayComp)
scalar OPSHeraldNetwork.host[53] appTotalDataCountMaxReceivable:last 1706
attr source sum(appTotalDataCountMaxReceivable)
scalar OPSHeraldNetwork.host[53] appNonLikedDataCountMaxReceivable:last 1273
attr source sum(appNonLikedDataCountMaxReceivable)
scalar OPSHeraldNetwork.host[53] appLikedDataCountMaxReceivable:last 433
attr source sum(appLikedDataCountMaxReceivable)
scalar OPSHeraldNetwork.host[53] appTotalDataBytesMaxReceivable:last 43317225
attr source sum(appTotalDataBytesMaxReceivable)
scalar OPSHeraldNetwork.host[53] appNonLikedDataBytesMaxReceivable:last 32307627
attr source sum(appNonLikedDataBytesMaxReceivable)
scalar OPSHeraldNetwork.host[53] appLikedDataBytesMaxReceivable:last 11009598
attr source sum(appLikedDataBytesMaxReceivable)
scalar OPSHeraldNetwork.host[53] appTotalDataCountReceived:last 28
attr source sum(appTotalDataCountReceived)
scalar OPSHeraldNetwork.host[53] appDuplicateDataCountReceived:last -nan
attr source sum(appDuplicateDataCountReceived)
scalar OPSHeraldNetwork.host[53] appNonLikedDataCountReceived:last 24
attr source sum(appNonLikedDataCountReceived)
scalar OPSHeraldNetwork.host[53] appLikedDataCountReceived:last 4
attr source sum(appLikedDataCountReceived)
scalar OPSHeraldNetwork.host[53] appTotalDataBytesReceived:last 656311
attr source sum(appTotalDataBytesReceived)
scalar OPSHeraldNetwork.host[53] appDuplicateDataBytesReceived:last -nan
attr source sum(appDuplicateDataBytesReceived)
scalar OPSHeraldNetwork.host[53] appNonLikedDataBytesReceived:last 554354
attr source sum(appNonLikedDataBytesReceived)
scalar OPSHeraldNetwork.host[53] appLikedDataBytesReceived:last 101957
attr source sum(appLikedDataBytesReceived)
scalar OPSHeraldNetwork linkSimpleNeighbourSize:mean 0.35299079585538
attr source linkSimpleNeighSize
attr title "Simple Neighbour Size, mean"
scalar OPSHeraldNetwork linkContactCount:last 766
attr source sum(linkContactCount)
attr title "Contact Count, last"
scalar OPSHeraldNetwork linkAvgContactDuration:last 2538.0835509138
attr source sum(linkContactDuration)/sum(linkContactDurationCount)
attr title "Average Contact Duration, last"
attr unit s
scalar OPSHeraldNetwork linkAvgNeighbourSize:last 0.35299079585538
attr source sum(linkNeighSize)/sum(linkNeighSizeCount)
attr title "Average Neighbour Size, last"
scalar OPSHeraldNetwork fwdTotalBytesSent:last 1264635575
attr source sum(fwdTotalBytesSent)
attr title "Total Sent, last"
attr unit byte
scalar OPSHeraldNetwork fwdDPTableDataBytesSent:last -nan
attr source sum(fwdDPTableDataBytesSent)
attr title "DP Table Data Sent, last"
attr unit byte
scalar OPSHeraldNetwork fwdDPTableRequestBytesSent:last -nan
attr source sum(fwdDPTableRequestBytesSent)
attr title "DP Table Requests Sent, last"
attr unit byte
scalar OPSHeraldNetwork fwdDataReqBytesSent:last 8650192
attr source sum(fwdDataReqBytesSent)
attr title "Data Requests Sent, last"
attr unit byte
scalar OPSHeraldNetwork fwdSumVecBytesSent:last 68344120
attr source sum(fwdSumVecBytesSent)
attr title "Summary Vectors Sent, last"
attr unit byte
scalar OPSHeraldNetwork fwdDataBytesSent:last 1187641263
attr source sum(fwdDataBytesSent)
attr title "Data Sent, last"
attr unit byte
scalar OPSHeraldNetwork fwdCurrentCacheSizeBytesAvg2:last 11653727.325715
attr source mean(fwdCurrentCacheSizeBytes2)
attr title "Average Cache Size, last"
attr unit byte
scalar OPSHeraldNetwork fwdCurrentCacheSizeBytesAvg2:mean 6462682.7276289
attr source mean(fwdCurrentCacheSizeBytes2)
attr title "Average Cache Size, mean"
attr unit byte
scalar OPSHeraldNetwork fwdCurrentCacheSizeBytesPeriodicAvg:mean 5350708.7478383
attr source periodicAverageForAllNodes(fwdCurrentCacheSizeBytesPeriodic)
attr title "Periodic Average Cache Size, mean"
attr unit byte
scalar OPSHeraldNetwork fwdCurrentCacheSizeBytesAvg:last 11653727.325715
attr source sum(fwdCurrentCacheSizeBytes)/sum(fwdCurrentCacheSizeReportedCount)
attr title "Average Cache Size, last"
attr unit byte
scalar OPSHeraldNetwork fwdCacheBytesUpdated:last 327132709
attr source sum(fwdCacheBytesUpdated)
attr title "Cache Updates, last"
attr unit byte
scalar OPSHeraldNetwork fwdCacheBytesAdded:last 754891829
attr source sum(fwdCacheBytesAdded)
attr title "Cache Additions, last"
attr unit byte
scalar OPSHeraldNetwork fwdCacheBytesRemoved:last -nan
attr source sum(fwdCacheBytesRemoved)
attr title "Cache Removals, last"
attr unit byte
scalar OPSHeraldNetwork fwdAvgHopsTravelled:last 3.9481919332406
attr source sum(fwdHopsTravelled)/sum(fwdHopsTravelledCount)
attr title "Average Hops Travelled, last"
scalar OPSHeraldNetwork fwdTotalBytesReceived:last 1107205782
attr source sum(fwdTotalBytesReceived)
attr title "Total Received, last"
attr unit byte
scalar OPSHeraldNetwork fwdDPTableDataBytesReceived:last -nan
attr source sum(fwdDPTableDataBytesReceived)
attr title "DP Table Data Received, last"
attr unit byte
scalar OPSHeraldNetwork fwdDPTableRequestBytesReceived:last -nan
attr source sum(fwdDPTableRequestBytesReceived)
attr title "DP Table Requests Received, last"
attr unit byte
scalar OPSHeraldNetwork fwdDataReqBytesReceived:last 334892
attr source sum(fwdDataReqBytesReceived)
attr title "Data Requests Received, last"
attr unit byte
scalar OPSHeraldNetwork fwdSumVecBytesReceived:last 68023408
attr source sum(fwdSumVecBytesReceived)
attr title "Summary Vectors Received, last"
attr unit byte
scalar OPSHeraldNetwork fwdDataBytesReceived:last 1038847482
attr source sum(fwdDataBytesReceived)
attr title "Data Received, last"
attr unit byte
scalar OPSHeraldNetwork appTotalDataCountReceived2:last 27817
attr source sum(appTotalDataCountReceived2)
scalar OPSHeraldNetwork appTotalDataBytesReceived2:last 710708173
attr source sum(appTotalDataBytesReceived2)
scalar OPSHeraldNetwork appTotalDataReceivedDelay2:mean 131536.37977214
attr source appTotalDataReceivedDelay2
scalar OPSHeraldNetwork appNonLikedDataReceivedDelay2:mean 130325.57611682
attr source appNonLikedDataReceivedDelay2
scalar OPSHeraldNetwork appLikedDataReceivedDelay2:mean 135167.57227553
attr source appLikedDataReceivedDelay2
scalar OPSHeraldNetwork appTotalDataAvgHopCount:last 3.7917101053313
attr source sum(appTotalDataHopsForAvgHopsComp)/sum(appTotalDataHopsCountForAvgHopsComp)
scalar OPSHeraldNetwork appNonLikedDataAvgHopCount:last 3.8047552849815
attr source sum(appNonLikedDataHopsForAvgHopsComp)/sum(appNonLikedDataHopsCountForAvgHopsComp)
scalar OPSHeraldNetwork appLikedDataAvgHopCount:last 3.7525876940771
attr source sum(appLikedDataHopsForAvgHopsComp)/sum(appLikedDataHopsCountForAvgHopsComp)
scalar OPSHeraldNetwork appTotalDataDeliveryRatio:last 0.30181084336042
attr source sum(appTotalDataCountReceivedForRatioComp)/sum(appTotalDataCountMaxReceivableForRatioComp)
scalar OPSHeraldNetwork appNonLikedDataDeliveryRatio:last 0.30300521446105
attr source sum(appNonLikedDataCountReceivedForRatioComp)/sum(appNonLikedDataCountMaxReceivableForRatioComp)
scalar OPSHeraldNetwork appLikedDataDeliveryRatio:last 0.29828473413379
attr source sum(appLikedDataCountReceivedForRatioComp)/sum(appLikedDataCountMaxReceivableForRatioComp)
scalar OPSHeraldNetwork appTotalDataReceivedAvgDelay:last 131536.37977214
attr source sum(appTotalDataReceivedDelay)/sum(appTotalDataCountReceivedForAvgDelayComp)
scalar OPSHeraldNetwork appNonLikedDataReceivedAvgDelay:last 130325.57611682
attr source sum(appNonLikedDataReceivedDelay)/sum(appNonLikedDataCountReceivedForAvgDelayComp)
scalar OPSHeraldNetwork appLikedDataReceivedAvgDelay:last 135167.57227553
attr source sum(appLikedDataReceivedDelay)/sum(appLikedDataCountReceivedForAvgDelayComp)
scalar OPSHeraldNetwork appTotalDataCountMaxReceivable:last 92167
attr source sum(appTotalDataCountMaxReceivable)
scalar OPSHeraldNetwork appNonLikedDataCountMaxReceivable:last 68847
attr source sum(appNonLikedDataCountMaxReceivable)
scalar OPSHeraldNetwork appLikedDataCountMaxReceivable:last 23320
attr source sum(appLikedDataCountMaxReceivable)
scalar OPSHeraldNetwork appTotalDataBytesMaxReceivable:last 2341733768
attr source sum(appTotalDataBytesMaxReceivable)
scalar OPSHeraldNetwork appNonLikedDataBytesMaxReceivable:last 1745051977
attr source sum(appNonLikedDataBytesMaxReceivable)
scalar OPSHeraldNetwork appLikedDataBytesMaxReceivable:last 596681791
attr source sum(appLikedDataBytesMaxReceivable)
scalar OPSHeraldNetwork appTotalDataCountReceived:last 40264
attr source sum(appTotalDataCountReceived)
scalar OPSHeraldNetwork appDuplicateDataCountReceived:last 12447
attr source sum(appDuplicateDataCountReceived)
scalar OPSHeraldNetwork appNonLikedDataCountReceived:last 20861
attr source sum(appNonLikedDataCountReceived)
scalar OPSHeraldNetwork appLikedDataCountReceived:last 6956
attr source sum(appLikedDataCountReceived)
scalar OPSHeraldNetwork appTotalDataBytesReceived:last 1037840882
attr source sum(appTotalDataBytesReceived)
scalar OPSHeraldNetwork appDuplicateDataBytesReceived:last 327132709
attr source sum(appDuplicateDataBytesReceived)
scalar OPSHeraldNetwork appNonLikedDataBytesReceived:last 536941604
attr source sum(appNonLikedDataBytesReceived)
scalar OPSHeraldNetwork appLikedDataBytesReceived:last 173766569
attr source sum(appLikedDataBytesReceived)

