version 2
run General-0-20210119-23:22:38-31148
attr configname General
attr datetime 20210119-23:22:38
attr experiment General
attr inifile omnetpp-herald-epidemic.ini
attr iterationvars ""
attr iterationvarsf ""
attr measurement ""
attr network OPSHeraldNetwork
attr processid 31148
attr repetition 0
attr replication #0
attr resultdir results/
attr runnumber 0
attr seedset 0
param **.numNodes 98
param **.app.dataGenerationInterval 1s
param **.app.dataSizeInBytes 10000
param **.app.popularityAssignmentPercentage 25
param **.app.usedRNG 1
param **.app.mode 0
param **.forwardingLayer "\"KKeetchiLayer\""
param **.forwarding.agingInterval 600s
param **.forwarding.maximumCacheSize 100000000byte
param **.forwarding.neighbourhoodChangeSignificanceThreshold 0.25
param **.forwarding.coolOffDuration 300s
param **.forwarding.learningConst 0.5
param **.forwarding.backoffTimerIncrementFactor 1.5
param **.forwarding.usedRNG 3
param **.link.wirelessRange 30m
param **.link.neighbourScanInterval 1s
param **.link.bandwidthBitRate 100000bps
param **.link.wirelessHeaderSize 16byte
param **.link.usedRNG 4
param **.mobilityType "\"BonnMotionMobility\""
param **.mobility.traceFile "\"all_traces.gpx.movements\""
param **.mobility.nodeId -1

scalar OPSHeraldNetwork.host[0] linkSimpleNeighbourSize:mean 1.334388
attr source linkSimpleNeighSize
attr title "Simple Neighbour Size, mean"
scalar OPSHeraldNetwork.host[0] linkContactCount:last 252
attr source sum(linkContactCount)
attr title "Contact Count, last"
scalar OPSHeraldNetwork.host[0] linkAvgContactDuration:last 732.60714285714
attr source sum(linkContactDuration)/sum(linkContactDurationCount)
attr title "Average Contact Duration, last"
attr unit s
scalar OPSHeraldNetwork.host[0] linkAvgNeighbourSize:last 1.334388
attr source sum(linkNeighSize)/sum(linkNeighSizeCount)
attr title "Average Neighbour Size, last"
scalar OPSHeraldNetwork.host[0] fwdTotalBytesSent:last 213789661
attr source sum(fwdTotalBytesSent)
attr title "Total Sent, last"
attr unit byte
scalar OPSHeraldNetwork.host[0] fwdDPTableDataBytesSent:last -nan
attr source sum(fwdDPTableDataBytesSent)
attr title "DP Table Data Sent, last"
attr unit byte
scalar OPSHeraldNetwork.host[0] fwdDPTableRequestBytesSent:last -nan
attr source sum(fwdDPTableRequestBytesSent)
attr title "DP Table Requests Sent, last"
attr unit byte
scalar OPSHeraldNetwork.host[0] fwdDataReqBytesSent:last -nan
attr source sum(fwdDataReqBytesSent)
attr title "Data Requests Sent, last"
attr unit byte
scalar OPSHeraldNetwork.host[0] fwdSumVecBytesSent:last -nan
attr source sum(fwdSumVecBytesSent)
attr title "Summary Vectors Sent, last"
attr unit byte
scalar OPSHeraldNetwork.host[0] fwdDataBytesSent:last 213789661
attr source sum(fwdDataBytesSent)
attr title "Data Sent, last"
attr unit byte
scalar OPSHeraldNetwork.host[0] fwdCurrentCacheSizeBytes2:last 94394812851250
attr source fwdCurrentCacheSizeBytes2
attr title "Cache Size, last"
attr unit byte
scalar OPSHeraldNetwork.host[0] fwdCurrentCacheSizeBytes2:mean 94546571690537
attr source fwdCurrentCacheSizeBytes2
attr title "Cache Size, mean"
attr unit byte
scalar OPSHeraldNetwork.host[0] fwdCurrentCacheSizeBytesPeriodic:last 21619762
attr source fwdCurrentCacheSizeBytesPeriodic
attr title "Periodic Cache Size, last"
attr unit byte
scalar OPSHeraldNetwork.host[0] fwdCurrentCacheSizeBytesPeriodic:mean 9619773.154
attr source fwdCurrentCacheSizeBytesPeriodic
attr title "Periodic Cache Size, mean"
attr unit byte
scalar OPSHeraldNetwork.host[0] fwdCurrentCacheSizeBytesAvg:last 94546571690537
attr source sum(fwdCurrentCacheSizeBytes)/sum(fwdCurrentCacheSizeReportedCount)
attr title "Average Cache Size, last"
attr unit byte
scalar OPSHeraldNetwork.host[0] fwdCacheBytesUpdated:last 214890213
attr source sum(fwdCacheBytesUpdated)
attr title "Cache Updates, last"
attr unit byte
scalar OPSHeraldNetwork.host[0] fwdCacheBytesAdded:last 21619762
attr source sum(fwdCacheBytesAdded)
attr title "Cache Additions, last"
attr unit byte
scalar OPSHeraldNetwork.host[0] fwdCacheBytesRemoved:last -nan
attr source sum(fwdCacheBytesRemoved)
attr title "Cache Removals, last"
attr unit byte
scalar OPSHeraldNetwork.host[0] fwdAvgHopsTravelled:last 21.17524746676
attr source sum(fwdHopsTravelled)/sum(fwdHopsTravelledCount)
attr title "Average Hops Travelled, last"
scalar OPSHeraldNetwork.host[0] fwdTotalBytesReceived:last 414453767
attr source sum(fwdTotalBytesReceived)
attr title "Total Received, last"
attr unit byte
scalar OPSHeraldNetwork.host[0] fwdDPTableDataBytesReceived:last -nan
attr source sum(fwdDPTableDataBytesReceived)
attr title "DP Table Data Received, last"
attr unit byte
scalar OPSHeraldNetwork.host[0] fwdDPTableRequestBytesReceived:last -nan
attr source sum(fwdDPTableRequestBytesReceived)
attr title "DP Table Requests Received, last"
attr unit byte
scalar OPSHeraldNetwork.host[0] fwdDataReqBytesReceived:last -nan
attr source sum(fwdDataReqBytesReceived)
attr title "Data Requests Received, last"
attr unit byte
scalar OPSHeraldNetwork.host[0] fwdSumVecBytesReceived:last -nan
attr source sum(fwdSumVecBytesReceived)
attr title "Summary Vectors Received, last"
attr unit byte
scalar OPSHeraldNetwork.host[0] fwdDataBytesReceived:last 414453767
attr source sum(fwdDataBytesReceived)
attr title "Data Received, last"
attr unit byte
scalar OPSHeraldNetwork.host[0] appTotalDataCountReceived2:last 834
attr source sum(appTotalDataCountReceived2)
scalar OPSHeraldNetwork.host[0] appTotalDataBytesReceived2:last 20814304
attr source sum(appTotalDataBytesReceived2)
scalar OPSHeraldNetwork.host[0] appTotalDataReceivedDelay2:mean 4676.5789465707
attr source appTotalDataReceivedDelay2
scalar OPSHeraldNetwork.host[0] appNonLikedDataReceivedDelay2:mean 15047.749261935
attr source appNonLikedDataReceivedDelay2
scalar OPSHeraldNetwork.host[0] appLikedDataReceivedDelay2:mean 4276.1975271731
attr source appLikedDataReceivedDelay2
scalar OPSHeraldNetwork.host[0] appTotalDataAvgHopCount:last 8.8896882494005
attr source sum(appTotalDataHopsForAvgHopsComp)/sum(appTotalDataHopsCountForAvgHopsComp)
scalar OPSHeraldNetwork.host[0] appNonLikedDataAvgHopCount:last 2.2258064516129
attr source sum(appNonLikedDataHopsForAvgHopsComp)/sum(appNonLikedDataHopsCountForAvgHopsComp)
scalar OPSHeraldNetwork.host[0] appLikedDataAvgHopCount:last 9.1469489414695
attr source sum(appLikedDataHopsForAvgHopsComp)/sum(appLikedDataHopsCountForAvgHopsComp)
scalar OPSHeraldNetwork.host[0] appTotalDataDeliveryRatio:last 0.091921084536537
attr source sum(appTotalDataCountReceivedForRatioComp)/sum(appTotalDataCountMaxReceivableForRatioComp)
scalar OPSHeraldNetwork.host[0] appNonLikedDataDeliveryRatio:last 0.0045722713864307
attr source sum(appNonLikedDataCountReceivedForRatioComp)/sum(appNonLikedDataCountMaxReceivableForRatioComp)
scalar OPSHeraldNetwork.host[0] appLikedDataDeliveryRatio:last 0.35019624945486
attr source sum(appLikedDataCountReceivedForRatioComp)/sum(appLikedDataCountMaxReceivableForRatioComp)
scalar OPSHeraldNetwork.host[0] appTotalDataReceivedAvgDelay:last 4676.5789465707
attr source sum(appTotalDataReceivedDelay)/sum(appTotalDataCountReceivedForAvgDelayComp)
scalar OPSHeraldNetwork.host[0] appNonLikedDataReceivedAvgDelay:last 15047.749261935
attr source sum(appNonLikedDataReceivedDelay)/sum(appNonLikedDataCountReceivedForAvgDelayComp)
scalar OPSHeraldNetwork.host[0] appLikedDataReceivedAvgDelay:last 4276.1975271731
attr source sum(appLikedDataReceivedDelay)/sum(appLikedDataCountReceivedForAvgDelayComp)
scalar OPSHeraldNetwork.host[0] appTotalDataCountMaxReceivable:last 9073
attr source sum(appTotalDataCountMaxReceivable)
scalar OPSHeraldNetwork.host[0] appNonLikedDataCountMaxReceivable:last 6780
attr source sum(appNonLikedDataCountMaxReceivable)
scalar OPSHeraldNetwork.host[0] appLikedDataCountMaxReceivable:last 2293
attr source sum(appLikedDataCountMaxReceivable)
scalar OPSHeraldNetwork.host[0] appTotalDataBytesMaxReceivable:last 226951031
attr source sum(appTotalDataBytesMaxReceivable)
scalar OPSHeraldNetwork.host[0] appNonLikedDataBytesMaxReceivable:last 169717305
attr source sum(appNonLikedDataBytesMaxReceivable)
scalar OPSHeraldNetwork.host[0] appLikedDataBytesMaxReceivable:last 57233726
attr source sum(appLikedDataBytesMaxReceivable)
scalar OPSHeraldNetwork.host[0] appTotalDataCountReceived:last 9247
attr source sum(appTotalDataCountReceived)
scalar OPSHeraldNetwork.host[0] appDuplicateDataCountReceived:last 8413
attr source sum(appDuplicateDataCountReceived)
scalar OPSHeraldNetwork.host[0] appNonLikedDataCountReceived:last 31
attr source sum(appNonLikedDataCountReceived)
scalar OPSHeraldNetwork.host[0] appLikedDataCountReceived:last 803
attr source sum(appLikedDataCountReceived)
scalar OPSHeraldNetwork.host[0] appTotalDataBytesReceived:last 235704517
attr source sum(appTotalDataBytesReceived)
scalar OPSHeraldNetwork.host[0] appDuplicateDataBytesReceived:last 214890213
attr source sum(appDuplicateDataBytesReceived)
scalar OPSHeraldNetwork.host[0] appNonLikedDataBytesReceived:last 703386
attr source sum(appNonLikedDataBytesReceived)
scalar OPSHeraldNetwork.host[0] appLikedDataBytesReceived:last 20110918
attr source sum(appLikedDataBytesReceived)
scalar OPSHeraldNetwork.host[1] linkSimpleNeighbourSize:mean 0.965116
attr source linkSimpleNeighSize
attr title "Simple Neighbour Size, mean"
scalar OPSHeraldNetwork.host[1] linkContactCount:last 293
attr source sum(linkContactCount)
attr title "Contact Count, last"
scalar OPSHeraldNetwork.host[1] linkAvgContactDuration:last 553.09556313993
attr source sum(linkContactDuration)/sum(linkContactDurationCount)
attr title "Average Contact Duration, last"
attr unit s
scalar OPSHeraldNetwork.host[1] linkAvgNeighbourSize:last 0.965116
attr source sum(linkNeighSize)/sum(linkNeighSizeCount)
attr title "Average Neighbour Size, last"
scalar OPSHeraldNetwork.host[1] fwdTotalBytesSent:last 154314286
attr source sum(fwdTotalBytesSent)
attr title "Total Sent, last"
attr unit byte
scalar OPSHeraldNetwork.host[1] fwdDPTableDataBytesSent:last -nan
attr source sum(fwdDPTableDataBytesSent)
attr title "DP Table Data Sent, last"
attr unit byte
scalar OPSHeraldNetwork.host[1] fwdDPTableRequestBytesSent:last -nan
attr source sum(fwdDPTableRequestBytesSent)
attr title "DP Table Requests Sent, last"
attr unit byte
scalar OPSHeraldNetwork.host[1] fwdDataReqBytesSent:last -nan
attr source sum(fwdDataReqBytesSent)
attr title "Data Requests Sent, last"
attr unit byte
scalar OPSHeraldNetwork.host[1] fwdSumVecBytesSent:last -nan
attr source sum(fwdSumVecBytesSent)
attr title "Summary Vectors Sent, last"
attr unit byte
scalar OPSHeraldNetwork.host[1] fwdDataBytesSent:last 154314286
attr source sum(fwdDataBytesSent)
attr title "Data Sent, last"
attr unit byte
scalar OPSHeraldNetwork.host[1] fwdCurrentCacheSizeBytes2:last 94394812030334
attr source fwdCurrentCacheSizeBytes2
attr title "Cache Size, last"
attr unit byte
scalar OPSHeraldNetwork.host[1] fwdCurrentCacheSizeBytes2:mean 94609802466685
attr source fwdCurrentCacheSizeBytes2
attr title "Cache Size, mean"
attr unit byte
scalar OPSHeraldNetwork.host[1] fwdCurrentCacheSizeBytesPeriodic:last 20798846
attr source fwdCurrentCacheSizeBytesPeriodic
attr title "Periodic Cache Size, last"
attr unit byte
scalar OPSHeraldNetwork.host[1] fwdCurrentCacheSizeBytesPeriodic:mean 9797900.6348
attr source fwdCurrentCacheSizeBytesPeriodic
attr title "Periodic Cache Size, mean"
attr unit byte
scalar OPSHeraldNetwork.host[1] fwdCurrentCacheSizeBytesAvg:last 94609802466685
attr source sum(fwdCurrentCacheSizeBytes)/sum(fwdCurrentCacheSizeReportedCount)
attr title "Average Cache Size, last"
attr unit byte
scalar OPSHeraldNetwork.host[1] fwdCacheBytesUpdated:last 149656355
attr source sum(fwdCacheBytesUpdated)
attr title "Cache Updates, last"
attr unit byte
scalar OPSHeraldNetwork.host[1] fwdCacheBytesAdded:last 20798846
attr source sum(fwdCacheBytesAdded)
attr title "Cache Additions, last"
attr unit byte
scalar OPSHeraldNetwork.host[1] fwdCacheBytesRemoved:last -nan
attr source sum(fwdCacheBytesRemoved)
attr title "Cache Removals, last"
attr unit byte
scalar OPSHeraldNetwork.host[1] fwdAvgHopsTravelled:last 32.715126436782
attr source sum(fwdHopsTravelled)/sum(fwdHopsTravelledCount)
attr title "Average Hops Travelled, last"
scalar OPSHeraldNetwork.host[1] fwdTotalBytesReceived:last 268855130
attr source sum(fwdTotalBytesReceived)
attr title "Total Received, last"
attr unit byte
scalar OPSHeraldNetwork.host[1] fwdDPTableDataBytesReceived:last -nan
attr source sum(fwdDPTableDataBytesReceived)
attr title "DP Table Data Received, last"
attr unit byte
scalar OPSHeraldNetwork.host[1] fwdDPTableRequestBytesReceived:last -nan
attr source sum(fwdDPTableRequestBytesReceived)
attr title "DP Table Requests Received, last"
attr unit byte
scalar OPSHeraldNetwork.host[1] fwdDataReqBytesReceived:last -nan
attr source sum(fwdDataReqBytesReceived)
attr title "Data Requests Received, last"
attr unit byte
scalar OPSHeraldNetwork.host[1] fwdSumVecBytesReceived:last -nan
attr source sum(fwdSumVecBytesReceived)
attr title "Summary Vectors Received, last"
attr unit byte
scalar OPSHeraldNetwork.host[1] fwdDataBytesReceived:last 268855130
attr source sum(fwdDataBytesReceived)
attr title "Data Received, last"
attr unit byte
scalar OPSHeraldNetwork.host[1] appTotalDataCountReceived2:last 784
attr source sum(appTotalDataCountReceived2)
scalar OPSHeraldNetwork.host[1] appTotalDataBytesReceived2:last 19916829
attr source sum(appTotalDataBytesReceived2)
scalar OPSHeraldNetwork.host[1] appTotalDataReceivedDelay2:mean 3725.3318486735
attr source appTotalDataReceivedDelay2
scalar OPSHeraldNetwork.host[1] appNonLikedDataReceivedDelay2:mean 17828.550361905
attr source appNonLikedDataReceivedDelay2
scalar OPSHeraldNetwork.host[1] appLikedDataReceivedDelay2:mean 3337.1698712451
attr source appLikedDataReceivedDelay2
scalar OPSHeraldNetwork.host[1] appTotalDataAvgHopCount:last 10.158163265306
attr source sum(appTotalDataHopsForAvgHopsComp)/sum(appTotalDataHopsCountForAvgHopsComp)
scalar OPSHeraldNetwork.host[1] appNonLikedDataAvgHopCount:last 5.5714285714286
attr source sum(appNonLikedDataHopsForAvgHopsComp)/sum(appNonLikedDataHopsCountForAvgHopsComp)
scalar OPSHeraldNetwork.host[1] appLikedDataAvgHopCount:last 10.284403669725
attr source sum(appLikedDataHopsForAvgHopsComp)/sum(appLikedDataHopsCountForAvgHopsComp)
scalar OPSHeraldNetwork.host[1] appTotalDataDeliveryRatio:last 0.08642928012347
attr source sum(appTotalDataCountReceivedForRatioComp)/sum(appTotalDataCountMaxReceivableForRatioComp)
scalar OPSHeraldNetwork.host[1] appNonLikedDataDeliveryRatio:last 0.003096888364548
attr source sum(appNonLikedDataCountReceivedForRatioComp)/sum(appNonLikedDataCountMaxReceivableForRatioComp)
scalar OPSHeraldNetwork.host[1] appLikedDataDeliveryRatio:last 0.33318777292576
attr source sum(appLikedDataCountReceivedForRatioComp)/sum(appLikedDataCountMaxReceivableForRatioComp)
scalar OPSHeraldNetwork.host[1] appTotalDataReceivedAvgDelay:last 3725.3318486735
attr source sum(appTotalDataReceivedDelay)/sum(appTotalDataCountReceivedForAvgDelayComp)
scalar OPSHeraldNetwork.host[1] appNonLikedDataReceivedAvgDelay:last 17828.550361905
attr source sum(appNonLikedDataReceivedDelay)/sum(appNonLikedDataCountReceivedForAvgDelayComp)
scalar OPSHeraldNetwork.host[1] appLikedDataReceivedAvgDelay:last 3337.1698712451
attr source sum(appLikedDataReceivedDelay)/sum(appLikedDataCountReceivedForAvgDelayComp)
scalar OPSHeraldNetwork.host[1] appTotalDataCountMaxReceivable:last 9071
attr source sum(appTotalDataCountMaxReceivable)
scalar OPSHeraldNetwork.host[1] appNonLikedDataCountMaxReceivable:last 6781
attr source sum(appNonLikedDataCountMaxReceivable)
scalar OPSHeraldNetwork.host[1] appLikedDataCountMaxReceivable:last 2290
attr source sum(appLikedDataCountMaxReceivable)
scalar OPSHeraldNetwork.host[1] appTotalDataBytesMaxReceivable:last 226874472
attr source sum(appTotalDataBytesMaxReceivable)
scalar OPSHeraldNetwork.host[1] appNonLikedDataBytesMaxReceivable:last 169717229
attr source sum(appNonLikedDataBytesMaxReceivable)
scalar OPSHeraldNetwork.host[1] appLikedDataBytesMaxReceivable:last 57157243
attr source sum(appLikedDataBytesMaxReceivable)
scalar OPSHeraldNetwork.host[1] appTotalDataCountReceived:last 6939
attr source sum(appTotalDataCountReceived)
scalar OPSHeraldNetwork.host[1] appDuplicateDataCountReceived:last 6155
attr source sum(appDuplicateDataCountReceived)
scalar OPSHeraldNetwork.host[1] appNonLikedDataCountReceived:last 21
attr source sum(appNonLikedDataCountReceived)
scalar OPSHeraldNetwork.host[1] appLikedDataCountReceived:last 763
attr source sum(appLikedDataCountReceived)
scalar OPSHeraldNetwork.host[1] appTotalDataBytesReceived:last 169573184
attr source sum(appTotalDataBytesReceived)
scalar OPSHeraldNetwork.host[1] appDuplicateDataBytesReceived:last 149656355
attr source sum(appDuplicateDataBytesReceived)
scalar OPSHeraldNetwork.host[1] appNonLikedDataBytesReceived:last 484091
attr source sum(appNonLikedDataBytesReceived)
scalar OPSHeraldNetwork.host[1] appLikedDataBytesReceived:last 19432738
attr source sum(appLikedDataBytesReceived)
scalar OPSHeraldNetwork.host[2] linkSimpleNeighbourSize:mean 2.029164
attr source linkSimpleNeighSize
attr title "Simple Neighbour Size, mean"
scalar OPSHeraldNetwork.host[2] linkContactCount:last 86
attr source sum(linkContactCount)
attr title "Contact Count, last"
scalar OPSHeraldNetwork.host[2] linkAvgContactDuration:last 2636.8255813953
attr source sum(linkContactDuration)/sum(linkContactDurationCount)
attr title "Average Contact Duration, last"
attr unit s
scalar OPSHeraldNetwork.host[2] linkAvgNeighbourSize:last 2.029164
attr source sum(linkNeighSize)/sum(linkNeighSizeCount)
attr title "Average Neighbour Size, last"
scalar OPSHeraldNetwork.host[2] fwdTotalBytesSent:last 229657657
attr source sum(fwdTotalBytesSent)
attr title "Total Sent, last"
attr unit byte
scalar OPSHeraldNetwork.host[2] fwdDPTableDataBytesSent:last -nan
attr source sum(fwdDPTableDataBytesSent)
attr title "DP Table Data Sent, last"
attr unit byte
scalar OPSHeraldNetwork.host[2] fwdDPTableRequestBytesSent:last -nan
attr source sum(fwdDPTableRequestBytesSent)
attr title "DP Table Requests Sent, last"
attr unit byte
scalar OPSHeraldNetwork.host[2] fwdDataReqBytesSent:last -nan
attr source sum(fwdDataReqBytesSent)
attr title "Data Requests Sent, last"
attr unit byte
scalar OPSHeraldNetwork.host[2] fwdSumVecBytesSent:last -nan
attr source sum(fwdSumVecBytesSent)
attr title "Summary Vectors Sent, last"
attr unit byte
scalar OPSHeraldNetwork.host[2] fwdDataBytesSent:last 229657657
attr source sum(fwdDataBytesSent)
attr title "Data Sent, last"
attr unit byte
scalar OPSHeraldNetwork.host[2] fwdCurrentCacheSizeBytes2:last 94394814682607
attr source fwdCurrentCacheSizeBytes2
attr title "Cache Size, last"
attr unit byte
scalar OPSHeraldNetwork.host[2] fwdCurrentCacheSizeBytes2:mean 94461386302267
attr source fwdCurrentCacheSizeBytes2
attr title "Cache Size, mean"
attr unit byte
scalar OPSHeraldNetwork.host[2] fwdCurrentCacheSizeBytesPeriodic:last 23451119
attr source fwdCurrentCacheSizeBytesPeriodic
attr title "Periodic Cache Size, last"
attr unit byte
scalar OPSHeraldNetwork.host[2] fwdCurrentCacheSizeBytesPeriodic:mean 10910879.8356
attr source fwdCurrentCacheSizeBytesPeriodic
attr title "Periodic Cache Size, mean"
attr unit byte
scalar OPSHeraldNetwork.host[2] fwdCurrentCacheSizeBytesAvg:last 94461386302267
attr source sum(fwdCurrentCacheSizeBytes)/sum(fwdCurrentCacheSizeReportedCount)
attr title "Average Cache Size, last"
attr unit byte
scalar OPSHeraldNetwork.host[2] fwdCacheBytesUpdated:last 536038836
attr source sum(fwdCacheBytesUpdated)
attr title "Cache Updates, last"
attr unit byte
scalar OPSHeraldNetwork.host[2] fwdCacheBytesAdded:last 23451119
attr source sum(fwdCacheBytesAdded)
attr title "Cache Additions, last"
attr unit byte
scalar OPSHeraldNetwork.host[2] fwdCacheBytesRemoved:last -nan
attr source sum(fwdCacheBytesRemoved)
attr title "Cache Removals, last"
attr unit byte
scalar OPSHeraldNetwork.host[2] fwdAvgHopsTravelled:last 25.237091881666
attr source sum(fwdHopsTravelled)/sum(fwdHopsTravelledCount)
attr title "Average Hops Travelled, last"
scalar OPSHeraldNetwork.host[2] fwdTotalBytesReceived:last 797748228
attr source sum(fwdTotalBytesReceived)
attr title "Total Received, last"
attr unit byte
scalar OPSHeraldNetwork.host[2] fwdDPTableDataBytesReceived:last -nan
attr source sum(fwdDPTableDataBytesReceived)
attr title "DP Table Data Received, last"
attr unit byte
scalar OPSHeraldNetwork.host[2] fwdDPTableRequestBytesReceived:last -nan
attr source sum(fwdDPTableRequestBytesReceived)
attr title "DP Table Requests Received, last"
attr unit byte
scalar OPSHeraldNetwork.host[2] fwdDataReqBytesReceived:last -nan
attr source sum(fwdDataReqBytesReceived)
attr title "Data Requests Received, last"
attr unit byte
scalar OPSHeraldNetwork.host[2] fwdSumVecBytesReceived:last -nan
attr source sum(fwdSumVecBytesReceived)
attr title "Summary Vectors Received, last"
attr unit byte
scalar OPSHeraldNetwork.host[2] fwdDataBytesReceived:last 797748228
attr source sum(fwdDataBytesReceived)
attr title "Data Received, last"
attr unit byte
scalar OPSHeraldNetwork.host[2] appTotalDataCountReceived2:last 903
attr source sum(appTotalDataCountReceived2)
scalar OPSHeraldNetwork.host[2] appTotalDataBytesReceived2:last 22766826
attr source sum(appTotalDataBytesReceived2)
scalar OPSHeraldNetwork.host[2] appTotalDataReceivedDelay2:mean 3794.8823402879
attr source appTotalDataReceivedDelay2
scalar OPSHeraldNetwork.host[2] appNonLikedDataReceivedDelay2:mean 14782.0583456
attr source appNonLikedDataReceivedDelay2
scalar OPSHeraldNetwork.host[2] appLikedDataReceivedDelay2:mean 3482.035643098
attr source appLikedDataReceivedDelay2
scalar OPSHeraldNetwork.host[2] appTotalDataAvgHopCount:last 6.7951273532669
attr source sum(appTotalDataHopsForAvgHopsComp)/sum(appTotalDataHopsCountForAvgHopsComp)
scalar OPSHeraldNetwork.host[2] appNonLikedDataAvgHopCount:last 6
attr source sum(appNonLikedDataHopsForAvgHopsComp)/sum(appNonLikedDataHopsCountForAvgHopsComp)
scalar OPSHeraldNetwork.host[2] appLikedDataAvgHopCount:last 6.8177676537585
attr source sum(appLikedDataHopsForAvgHopsComp)/sum(appLikedDataHopsCountForAvgHopsComp)
scalar OPSHeraldNetwork.host[2] appTotalDataDeliveryRatio:last 0.099526066350711
attr source sum(appTotalDataCountReceivedForRatioComp)/sum(appTotalDataCountMaxReceivableForRatioComp)
scalar OPSHeraldNetwork.host[2] appNonLikedDataDeliveryRatio:last 0.0036862282512533
attr source sum(appNonLikedDataCountReceivedForRatioComp)/sum(appNonLikedDataCountMaxReceivableForRatioComp)
scalar OPSHeraldNetwork.host[2] appLikedDataDeliveryRatio:last 0.38323876036665
attr source sum(appLikedDataCountReceivedForRatioComp)/sum(appLikedDataCountMaxReceivableForRatioComp)
scalar OPSHeraldNetwork.host[2] appTotalDataReceivedAvgDelay:last 3794.8823402879
attr source sum(appTotalDataReceivedDelay)/sum(appTotalDataCountReceivedForAvgDelayComp)
scalar OPSHeraldNetwork.host[2] appNonLikedDataReceivedAvgDelay:last 14782.0583456
attr source sum(appNonLikedDataReceivedDelay)/sum(appNonLikedDataCountReceivedForAvgDelayComp)
scalar OPSHeraldNetwork.host[2] appLikedDataReceivedAvgDelay:last 3482.035643098
attr source sum(appLikedDataReceivedDelay)/sum(appLikedDataCountReceivedForAvgDelayComp)
scalar OPSHeraldNetwork.host[2] appTotalDataCountMaxReceivable:last 9073
attr source sum(appTotalDataCountMaxReceivable)
scalar OPSHeraldNetwork.host[2] appNonLikedDataCountMaxReceivable:last 6782
attr source sum(appNonLikedDataCountMaxReceivable)
scalar OPSHeraldNetwork.host[2] appLikedDataCountMaxReceivable:last 2291
attr source sum(appLikedDataCountMaxReceivable)
scalar OPSHeraldNetwork.host[2] appTotalDataBytesMaxReceivable:last 227072196
attr source sum(appTotalDataBytesMaxReceivable)
scalar OPSHeraldNetwork.host[2] appNonLikedDataBytesMaxReceivable:last 169884904
attr source sum(appNonLikedDataBytesMaxReceivable)
scalar OPSHeraldNetwork.host[2] appLikedDataBytesMaxReceivable:last 57187292
attr source sum(appLikedDataBytesMaxReceivable)
scalar OPSHeraldNetwork.host[2] appTotalDataCountReceived:last 21117
attr source sum(appTotalDataCountReceived)
scalar OPSHeraldNetwork.host[2] appDuplicateDataCountReceived:last 20214
attr source sum(appDuplicateDataCountReceived)
scalar OPSHeraldNetwork.host[2] appNonLikedDataCountReceived:last 25
attr source sum(appNonLikedDataCountReceived)
scalar OPSHeraldNetwork.host[2] appLikedDataCountReceived:last 878
attr source sum(appLikedDataCountReceived)
scalar OPSHeraldNetwork.host[2] appTotalDataBytesReceived:last 558805662
attr source sum(appTotalDataBytesReceived)
scalar OPSHeraldNetwork.host[2] appDuplicateDataBytesReceived:last 536038836
attr source sum(appDuplicateDataBytesReceived)
scalar OPSHeraldNetwork.host[2] appNonLikedDataBytesReceived:last 497217
attr source sum(appNonLikedDataBytesReceived)
scalar OPSHeraldNetwork.host[2] appLikedDataBytesReceived:last 22269609
attr source sum(appLikedDataBytesReceived)
scalar OPSHeraldNetwork.host[3] linkSimpleNeighbourSize:mean 0.906168
attr source linkSimpleNeighSize
attr title "Simple Neighbour Size, mean"
scalar OPSHeraldNetwork.host[3] linkContactCount:last 317
attr source sum(linkContactCount)
attr title "Contact Count, last"
scalar OPSHeraldNetwork.host[3] linkAvgContactDuration:last 408.40694006309
attr source sum(linkContactDuration)/sum(linkContactDurationCount)
attr title "Average Contact Duration, last"
attr unit s
scalar OPSHeraldNetwork.host[3] linkAvgNeighbourSize:last 0.906168
attr source sum(linkNeighSize)/sum(linkNeighSizeCount)
attr title "Average Neighbour Size, last"
scalar OPSHeraldNetwork.host[3] fwdTotalBytesSent:last 152191244
attr source sum(fwdTotalBytesSent)
attr title "Total Sent, last"
attr unit byte
scalar OPSHeraldNetwork.host[3] fwdDPTableDataBytesSent:last -nan
attr source sum(fwdDPTableDataBytesSent)
attr title "DP Table Data Sent, last"
attr unit byte
scalar OPSHeraldNetwork.host[3] fwdDPTableRequestBytesSent:last -nan
attr source sum(fwdDPTableRequestBytesSent)
attr title "DP Table Requests Sent, last"
attr unit byte
scalar OPSHeraldNetwork.host[3] fwdDataReqBytesSent:last -nan
attr source sum(fwdDataReqBytesSent)
attr title "Data Requests Sent, last"
attr unit byte
scalar OPSHeraldNetwork.host[3] fwdSumVecBytesSent:last -nan
attr source sum(fwdSumVecBytesSent)
attr title "Summary Vectors Sent, last"
attr unit byte
scalar OPSHeraldNetwork.host[3] fwdDataBytesSent:last 152191244
attr source sum(fwdDataBytesSent)
attr title "Data Sent, last"
attr unit byte
scalar OPSHeraldNetwork.host[3] fwdCurrentCacheSizeBytes2:last 94394811213283
attr source fwdCurrentCacheSizeBytes2
attr title "Cache Size, last"
attr unit byte
scalar OPSHeraldNetwork.host[3] fwdCurrentCacheSizeBytes2:mean 94565358884579
attr source fwdCurrentCacheSizeBytes2
attr title "Cache Size, mean"
attr unit byte
scalar OPSHeraldNetwork.host[3] fwdCurrentCacheSizeBytesPeriodic:last 19981795
attr source fwdCurrentCacheSizeBytesPeriodic
attr title "Periodic Cache Size, last"
attr unit byte
scalar OPSHeraldNetwork.host[3] fwdCurrentCacheSizeBytesPeriodic:mean 9175509.992
attr source fwdCurrentCacheSizeBytesPeriodic
attr title "Periodic Cache Size, mean"
attr unit byte
scalar OPSHeraldNetwork.host[3] fwdCurrentCacheSizeBytesAvg:last 94565358884579
attr source sum(fwdCurrentCacheSizeBytes)/sum(fwdCurrentCacheSizeReportedCount)
attr title "Average Cache Size, last"
attr unit byte
scalar OPSHeraldNetwork.host[3] fwdCacheBytesUpdated:last 254515091
attr source sum(fwdCacheBytesUpdated)
attr title "Cache Updates, last"
attr unit byte
scalar OPSHeraldNetwork.host[3] fwdCacheBytesAdded:last 19981795
attr source sum(fwdCacheBytesAdded)
attr title "Cache Additions, last"
attr unit byte
scalar OPSHeraldNetwork.host[3] fwdCacheBytesRemoved:last -nan
attr source sum(fwdCacheBytesRemoved)
attr title "Cache Removals, last"
attr unit byte
scalar OPSHeraldNetwork.host[3] fwdAvgHopsTravelled:last 25.341001176317
attr source sum(fwdHopsTravelled)/sum(fwdHopsTravelledCount)
attr title "Average Hops Travelled, last"
scalar OPSHeraldNetwork.host[3] fwdTotalBytesReceived:last 388006966
attr source sum(fwdTotalBytesReceived)
attr title "Total Received, last"
attr unit byte
scalar OPSHeraldNetwork.host[3] fwdDPTableDataBytesReceived:last -nan
attr source sum(fwdDPTableDataBytesReceived)
attr title "DP Table Data Received, last"
attr unit byte
scalar OPSHeraldNetwork.host[3] fwdDPTableRequestBytesReceived:last -nan
attr source sum(fwdDPTableRequestBytesReceived)
attr title "DP Table Requests Received, last"
attr unit byte
scalar OPSHeraldNetwork.host[3] fwdDataReqBytesReceived:last -nan
attr source sum(fwdDataReqBytesReceived)
attr title "Data Requests Received, last"
attr unit byte
scalar OPSHeraldNetwork.host[3] fwdSumVecBytesReceived:last -nan
attr source sum(fwdSumVecBytesReceived)
attr title "Summary Vectors Received, last"
attr unit byte
scalar OPSHeraldNetwork.host[3] fwdDataBytesReceived:last 388006966
attr source sum(fwdDataBytesReceived)
attr title "Data Received, last"
attr unit byte
scalar OPSHeraldNetwork.host[3] appTotalDataCountReceived2:last 753
attr source sum(appTotalDataCountReceived2)
scalar OPSHeraldNetwork.host[3] appTotalDataBytesReceived2:last 18874766
attr source sum(appTotalDataBytesReceived2)
scalar OPSHeraldNetwork.host[3] appTotalDataReceivedDelay2:mean 5119.3109333333
attr source appTotalDataReceivedDelay2
scalar OPSHeraldNetwork.host[3] appNonLikedDataReceivedDelay2:mean 18954.004943158
attr source appNonLikedDataReceivedDelay2
scalar OPSHeraldNetwork.host[3] appLikedDataReceivedDelay2:mean 4761.1921510627
attr source appLikedDataReceivedDelay2
scalar OPSHeraldNetwork.host[3] appTotalDataAvgHopCount:last 10.027888446215
attr source sum(appTotalDataHopsForAvgHopsComp)/sum(appTotalDataHopsCountForAvgHopsComp)
scalar OPSHeraldNetwork.host[3] appNonLikedDataAvgHopCount:last 4.4736842105263
attr source sum(appNonLikedDataHopsForAvgHopsComp)/sum(appNonLikedDataHopsCountForAvgHopsComp)
scalar OPSHeraldNetwork.host[3] appLikedDataAvgHopCount:last 10.171662125341
attr source sum(appLikedDataHopsForAvgHopsComp)/sum(appLikedDataHopsCountForAvgHopsComp)
scalar OPSHeraldNetwork.host[3] appTotalDataDeliveryRatio:last 0.083075904677846
attr source sum(appTotalDataCountReceivedForRatioComp)/sum(appTotalDataCountMaxReceivableForRatioComp)
scalar OPSHeraldNetwork.host[3] appNonLikedDataDeliveryRatio:last 0.0028056704075605
attr source sum(appNonLikedDataCountReceivedForRatioComp)/sum(appNonLikedDataCountMaxReceivableForRatioComp)
scalar OPSHeraldNetwork.host[3] appLikedDataDeliveryRatio:last 0.32024432809773
attr source sum(appLikedDataCountReceivedForRatioComp)/sum(appLikedDataCountMaxReceivableForRatioComp)
scalar OPSHeraldNetwork.host[3] appTotalDataReceivedAvgDelay:last 5119.3109333333
attr source sum(appTotalDataReceivedDelay)/sum(appTotalDataCountReceivedForAvgDelayComp)
scalar OPSHeraldNetwork.host[3] appNonLikedDataReceivedAvgDelay:last 18954.004943158
attr source sum(appNonLikedDataReceivedDelay)/sum(appNonLikedDataCountReceivedForAvgDelayComp)
scalar OPSHeraldNetwork.host[3] appLikedDataReceivedAvgDelay:last 4761.1921510627
attr source sum(appLikedDataReceivedDelay)/sum(appLikedDataCountReceivedForAvgDelayComp)
scalar OPSHeraldNetwork.host[3] appTotalDataCountMaxReceivable:last 9064
attr source sum(appTotalDataCountMaxReceivable)
scalar OPSHeraldNetwork.host[3] appNonLikedDataCountMaxReceivable:last 6772
attr source sum(appNonLikedDataCountMaxReceivable)
scalar OPSHeraldNetwork.host[3] appLikedDataCountMaxReceivable:last 2292
attr source sum(appLikedDataCountMaxReceivable)
scalar OPSHeraldNetwork.host[3] appTotalDataBytesMaxReceivable:last 226649460
attr source sum(appTotalDataBytesMaxReceivable)
scalar OPSHeraldNetwork.host[3] appNonLikedDataBytesMaxReceivable:last 169452619
attr source sum(appNonLikedDataBytesMaxReceivable)
scalar OPSHeraldNetwork.host[3] appLikedDataBytesMaxReceivable:last 57196841
attr source sum(appLikedDataBytesMaxReceivable)
scalar OPSHeraldNetwork.host[3] appTotalDataCountReceived:last 10613
attr source sum(appTotalDataCountReceived)
scalar OPSHeraldNetwork.host[3] appDuplicateDataCountReceived:last 9860
attr source sum(appDuplicateDataCountReceived)
scalar OPSHeraldNetwork.host[3] appNonLikedDataCountReceived:last 19
attr source sum(appNonLikedDataCountReceived)
scalar OPSHeraldNetwork.host[3] appLikedDataCountReceived:last 734
attr source sum(appLikedDataCountReceived)
scalar OPSHeraldNetwork.host[3] appTotalDataBytesReceived:last 273389857
attr source sum(appTotalDataBytesReceived)
scalar OPSHeraldNetwork.host[3] appDuplicateDataBytesReceived:last 254515091
attr source sum(appDuplicateDataBytesReceived)
scalar OPSHeraldNetwork.host[3] appNonLikedDataBytesReceived:last 449606
attr source sum(appNonLikedDataBytesReceived)
scalar OPSHeraldNetwork.host[3] appLikedDataBytesReceived:last 18425160
attr source sum(appLikedDataBytesReceived)
scalar OPSHeraldNetwork.host[4] linkSimpleNeighbourSize:mean 1.58842
attr source linkSimpleNeighSize
attr title "Simple Neighbour Size, mean"
scalar OPSHeraldNetwork.host[4] linkContactCount:last 112
attr source sum(linkContactCount)
attr title "Contact Count, last"
scalar OPSHeraldNetwork.host[4] linkAvgContactDuration:last 1972.2857142857
attr source sum(linkContactDuration)/sum(linkContactDurationCount)
attr title "Average Contact Duration, last"
attr unit s
scalar OPSHeraldNetwork.host[4] linkAvgNeighbourSize:last 1.58842
attr source sum(linkNeighSize)/sum(linkNeighSizeCount)
attr title "Average Neighbour Size, last"
scalar OPSHeraldNetwork.host[4] fwdTotalBytesSent:last 240371837
attr source sum(fwdTotalBytesSent)
attr title "Total Sent, last"
attr unit byte
scalar OPSHeraldNetwork.host[4] fwdDPTableDataBytesSent:last -nan
attr source sum(fwdDPTableDataBytesSent)
attr title "DP Table Data Sent, last"
attr unit byte
scalar OPSHeraldNetwork.host[4] fwdDPTableRequestBytesSent:last -nan
attr source sum(fwdDPTableRequestBytesSent)
attr title "DP Table Requests Sent, last"
attr unit byte
scalar OPSHeraldNetwork.host[4] fwdDataReqBytesSent:last -nan
attr source sum(fwdDataReqBytesSent)
attr title "Data Requests Sent, last"
attr unit byte
scalar OPSHeraldNetwork.host[4] fwdSumVecBytesSent:last -nan
attr source sum(fwdSumVecBytesSent)
attr title "Summary Vectors Sent, last"
attr unit byte
scalar OPSHeraldNetwork.host[4] fwdDataBytesSent:last 240371837
attr source sum(fwdDataBytesSent)
attr title "Data Sent, last"
attr unit byte
scalar OPSHeraldNetwork.host[4] fwdCurrentCacheSizeBytes2:last 94394811364945
attr source fwdCurrentCacheSizeBytes2
attr title "Cache Size, last"
attr unit byte
scalar OPSHeraldNetwork.host[4] fwdCurrentCacheSizeBytes2:mean 94553548592204
attr source fwdCurrentCacheSizeBytes2
attr title "Cache Size, mean"
attr unit byte
scalar OPSHeraldNetwork.host[4] fwdCurrentCacheSizeBytesPeriodic:last 20133457
attr source fwdCurrentCacheSizeBytesPeriodic
attr title "Periodic Cache Size, last"
attr unit byte
scalar OPSHeraldNetwork.host[4] fwdCurrentCacheSizeBytesPeriodic:mean 9274751.532
attr source fwdCurrentCacheSizeBytesPeriodic
attr title "Periodic Cache Size, mean"
attr unit byte
scalar OPSHeraldNetwork.host[4] fwdCurrentCacheSizeBytesAvg:last 94553548592204
attr source sum(fwdCurrentCacheSizeBytes)/sum(fwdCurrentCacheSizeReportedCount)
attr title "Average Cache Size, last"
attr unit byte
scalar OPSHeraldNetwork.host[4] fwdCacheBytesUpdated:last 190001551
attr source sum(fwdCacheBytesUpdated)
attr title "Cache Updates, last"
attr unit byte
scalar OPSHeraldNetwork.host[4] fwdCacheBytesAdded:last 20133457
attr source sum(fwdCacheBytesAdded)
attr title "Cache Additions, last"
attr unit byte
scalar OPSHeraldNetwork.host[4] fwdCacheBytesRemoved:last -nan
attr source sum(fwdCacheBytesRemoved)
attr title "Cache Removals, last"
attr unit byte
scalar OPSHeraldNetwork.host[4] fwdAvgHopsTravelled:last 26.708565900127
attr source sum(fwdHopsTravelled)/sum(fwdHopsTravelledCount)
attr title "Average Hops Travelled, last"
scalar OPSHeraldNetwork.host[4] fwdTotalBytesReceived:last 335222057
attr source sum(fwdTotalBytesReceived)
attr title "Total Received, last"
attr unit byte
scalar OPSHeraldNetwork.host[4] fwdDPTableDataBytesReceived:last -nan
attr source sum(fwdDPTableDataBytesReceived)
attr title "DP Table Data Received, last"
attr unit byte
scalar OPSHeraldNetwork.host[4] fwdDPTableRequestBytesReceived:last -nan
attr source sum(fwdDPTableRequestBytesReceived)
attr title "DP Table Requests Received, last"
attr unit byte
scalar OPSHeraldNetwork.host[4] fwdDataReqBytesReceived:last -nan
attr source sum(fwdDataReqBytesReceived)
attr title "Data Requests Received, last"
attr unit byte
scalar OPSHeraldNetwork.host[4] fwdSumVecBytesReceived:last -nan
attr source sum(fwdSumVecBytesReceived)
attr title "Summary Vectors Received, last"
attr unit byte
scalar OPSHeraldNetwork.host[4] fwdDataBytesReceived:last 335222057
attr source sum(fwdDataBytesReceived)
attr title "Data Received, last"
attr unit byte
scalar OPSHeraldNetwork.host[4] appTotalDataCountReceived2:last 774
attr source sum(appTotalDataCountReceived2)
scalar OPSHeraldNetwork.host[4] appTotalDataBytesReceived2:last 19388297
attr source sum(appTotalDataBytesReceived2)
scalar OPSHeraldNetwork.host[4] appTotalDataReceivedDelay2:mean 4875.8581044961
attr source appTotalDataReceivedDelay2
scalar OPSHeraldNetwork.host[4] appNonLikedDataReceivedDelay2:mean 18697.966948571
attr source appNonLikedDataReceivedDelay2
scalar OPSHeraldNetwork.host[4] appLikedDataReceivedDelay2:mean 4357.0658154424
attr source appLikedDataReceivedDelay2
scalar OPSHeraldNetwork.host[4] appTotalDataAvgHopCount:last 9.7248062015504
attr source sum(appTotalDataHopsForAvgHopsComp)/sum(appTotalDataHopsCountForAvgHopsComp)
scalar OPSHeraldNetwork.host[4] appNonLikedDataAvgHopCount:last 2.75
attr source sum(appNonLikedDataHopsForAvgHopsComp)/sum(appNonLikedDataHopsCountForAvgHopsComp)
scalar OPSHeraldNetwork.host[4] appLikedDataAvgHopCount:last 9.9865951742627
attr source sum(appLikedDataHopsForAvgHopsComp)/sum(appLikedDataHopsCountForAvgHopsComp)
scalar OPSHeraldNetwork.host[4] appTotalDataDeliveryRatio:last 0.085289256198347
attr source sum(appTotalDataCountReceivedForRatioComp)/sum(appTotalDataCountMaxReceivableForRatioComp)
scalar OPSHeraldNetwork.host[4] appNonLikedDataDeliveryRatio:last 0.0041285756414037
attr source sum(appNonLikedDataCountReceivedForRatioComp)/sum(appNonLikedDataCountMaxReceivableForRatioComp)
scalar OPSHeraldNetwork.host[4] appLikedDataDeliveryRatio:last 0.32533798517226
attr source sum(appLikedDataCountReceivedForRatioComp)/sum(appLikedDataCountMaxReceivableForRatioComp)
scalar OPSHeraldNetwork.host[4] appTotalDataReceivedAvgDelay:last 4875.8581044961
attr source sum(appTotalDataReceivedDelay)/sum(appTotalDataCountReceivedForAvgDelayComp)
scalar OPSHeraldNetwork.host[4] appNonLikedDataReceivedAvgDelay:last 18697.966948571
attr source sum(appNonLikedDataReceivedDelay)/sum(appNonLikedDataCountReceivedForAvgDelayComp)
scalar OPSHeraldNetwork.host[4] appLikedDataReceivedAvgDelay:last 4357.0658154424
attr source sum(appLikedDataReceivedDelay)/sum(appLikedDataCountReceivedForAvgDelayComp)
scalar OPSHeraldNetwork.host[4] appTotalDataCountMaxReceivable:last 9075
attr source sum(appTotalDataCountMaxReceivable)
scalar OPSHeraldNetwork.host[4] appNonLikedDataCountMaxReceivable:last 6782
attr source sum(appNonLikedDataCountMaxReceivable)
scalar OPSHeraldNetwork.host[4] appLikedDataCountMaxReceivable:last 2293
attr source sum(appLikedDataCountMaxReceivable)
scalar OPSHeraldNetwork.host[4] appTotalDataBytesMaxReceivable:last 227011329
attr source sum(appTotalDataBytesMaxReceivable)
scalar OPSHeraldNetwork.host[4] appNonLikedDataBytesMaxReceivable:last 169826456
attr source sum(appNonLikedDataBytesMaxReceivable)
scalar OPSHeraldNetwork.host[4] appLikedDataBytesMaxReceivable:last 57184873
attr source sum(appLikedDataBytesMaxReceivable)
scalar OPSHeraldNetwork.host[4] appTotalDataCountReceived:last 8269
attr source sum(appTotalDataCountReceived)
scalar OPSHeraldNetwork.host[4] appDuplicateDataCountReceived:last 7495
attr source sum(appDuplicateDataCountReceived)
scalar OPSHeraldNetwork.host[4] appNonLikedDataCountReceived:last 28
attr source sum(appNonLikedDataCountReceived)
scalar OPSHeraldNetwork.host[4] appLikedDataCountReceived:last 746
attr source sum(appLikedDataCountReceived)
scalar OPSHeraldNetwork.host[4] appTotalDataBytesReceived:last 209389848
attr source sum(appTotalDataBytesReceived)
scalar OPSHeraldNetwork.host[4] appDuplicateDataBytesReceived:last 190001551
attr source sum(appDuplicateDataBytesReceived)
scalar OPSHeraldNetwork.host[4] appNonLikedDataBytesReceived:last 610895
attr source sum(appNonLikedDataBytesReceived)
scalar OPSHeraldNetwork.host[4] appLikedDataBytesReceived:last 18777402
attr source sum(appLikedDataBytesReceived)
scalar OPSHeraldNetwork.host[5] linkSimpleNeighbourSize:mean 2.03912
attr source linkSimpleNeighSize
attr title "Simple Neighbour Size, mean"
scalar OPSHeraldNetwork.host[5] linkContactCount:last 30
attr source sum(linkContactCount)
attr title "Contact Count, last"
scalar OPSHeraldNetwork.host[5] linkAvgContactDuration:last 5525.2
attr source sum(linkContactDuration)/sum(linkContactDurationCount)
attr title "Average Contact Duration, last"
attr unit s
scalar OPSHeraldNetwork.host[5] linkAvgNeighbourSize:last 2.03912
attr source sum(linkNeighSize)/sum(linkNeighSizeCount)
attr title "Average Neighbour Size, last"
scalar OPSHeraldNetwork.host[5] fwdTotalBytesSent:last 196097806
attr source sum(fwdTotalBytesSent)
attr title "Total Sent, last"
attr unit byte
scalar OPSHeraldNetwork.host[5] fwdDPTableDataBytesSent:last -nan
attr source sum(fwdDPTableDataBytesSent)
attr title "DP Table Data Sent, last"
attr unit byte
scalar OPSHeraldNetwork.host[5] fwdDPTableRequestBytesSent:last -nan
attr source sum(fwdDPTableRequestBytesSent)
attr title "DP Table Requests Sent, last"
attr unit byte
scalar OPSHeraldNetwork.host[5] fwdDataReqBytesSent:last -nan
attr source sum(fwdDataReqBytesSent)
attr title "Data Requests Sent, last"
attr unit byte
scalar OPSHeraldNetwork.host[5] fwdSumVecBytesSent:last -nan
attr source sum(fwdSumVecBytesSent)
attr title "Summary Vectors Sent, last"
attr unit byte
scalar OPSHeraldNetwork.host[5] fwdDataBytesSent:last 196097806
attr source sum(fwdDataBytesSent)
attr title "Data Sent, last"
attr unit byte
scalar OPSHeraldNetwork.host[5] fwdCurrentCacheSizeBytes2:last 94394811156310
attr source fwdCurrentCacheSizeBytes2
attr title "Cache Size, last"
attr unit byte
scalar OPSHeraldNetwork.host[5] fwdCurrentCacheSizeBytes2:mean 94502500428948
attr source fwdCurrentCacheSizeBytes2
attr title "Cache Size, mean"
attr unit byte
scalar OPSHeraldNetwork.host[5] fwdCurrentCacheSizeBytesPeriodic:last 19924822
attr source fwdCurrentCacheSizeBytesPeriodic
attr title "Periodic Cache Size, last"
attr unit byte
scalar OPSHeraldNetwork.host[5] fwdCurrentCacheSizeBytesPeriodic:mean 8401405.4988
attr source fwdCurrentCacheSizeBytesPeriodic
attr title "Periodic Cache Size, mean"
attr unit byte
scalar OPSHeraldNetwork.host[5] fwdCurrentCacheSizeBytesAvg:last 94502500428948
attr source sum(fwdCurrentCacheSizeBytes)/sum(fwdCurrentCacheSizeReportedCount)
attr title "Average Cache Size, last"
attr unit byte
scalar OPSHeraldNetwork.host[5] fwdCacheBytesUpdated:last 336128643
attr source sum(fwdCacheBytesUpdated)
attr title "Cache Updates, last"
attr unit byte
scalar OPSHeraldNetwork.host[5] fwdCacheBytesAdded:last 19924822
attr source sum(fwdCacheBytesAdded)
attr title "Cache Additions, last"
attr unit byte
scalar OPSHeraldNetwork.host[5] fwdCacheBytesRemoved:last -nan
attr source sum(fwdCacheBytesRemoved)
attr title "Cache Removals, last"
attr unit byte
scalar OPSHeraldNetwork.host[5] fwdAvgHopsTravelled:last 29.871943312338
attr source sum(fwdHopsTravelled)/sum(fwdHopsTravelledCount)
attr title "Average Hops Travelled, last"
scalar OPSHeraldNetwork.host[5] fwdTotalBytesReceived:last 537336567
attr source sum(fwdTotalBytesReceived)
attr title "Total Received, last"
attr unit byte
scalar OPSHeraldNetwork.host[5] fwdDPTableDataBytesReceived:last -nan
attr source sum(fwdDPTableDataBytesReceived)
attr title "DP Table Data Received, last"
attr unit byte
scalar OPSHeraldNetwork.host[5] fwdDPTableRequestBytesReceived:last -nan
attr source sum(fwdDPTableRequestBytesReceived)
attr title "DP Table Requests Received, last"
attr unit byte
scalar OPSHeraldNetwork.host[5] fwdDataReqBytesReceived:last -nan
attr source sum(fwdDataReqBytesReceived)
attr title "Data Requests Received, last"
attr unit byte
scalar OPSHeraldNetwork.host[5] fwdSumVecBytesReceived:last -nan
attr source sum(fwdSumVecBytesReceived)
attr title "Summary Vectors Received, last"
attr unit byte
scalar OPSHeraldNetwork.host[5] fwdDataBytesReceived:last 537336567
attr source sum(fwdDataBytesReceived)
attr title "Data Received, last"
attr unit byte
scalar OPSHeraldNetwork.host[5] appTotalDataCountReceived2:last 757
attr source sum(appTotalDataCountReceived2)
scalar OPSHeraldNetwork.host[5] appTotalDataBytesReceived2:last 19083955
attr source sum(appTotalDataBytesReceived2)
scalar OPSHeraldNetwork.host[5] appTotalDataReceivedDelay2:mean 3501.9675429326
attr source appTotalDataReceivedDelay2
scalar OPSHeraldNetwork.host[5] appNonLikedDataReceivedDelay2:mean -nan
attr source appNonLikedDataReceivedDelay2
scalar OPSHeraldNetwork.host[5] appLikedDataReceivedDelay2:mean 3501.9675429326
attr source appLikedDataReceivedDelay2
scalar OPSHeraldNetwork.host[5] appTotalDataAvgHopCount:last 8.6248348745046
attr source sum(appTotalDataHopsForAvgHopsComp)/sum(appTotalDataHopsCountForAvgHopsComp)
scalar OPSHeraldNetwork.host[5] appNonLikedDataAvgHopCount:last -nan
attr source sum(appNonLikedDataHopsForAvgHopsComp)/sum(appNonLikedDataHopsCountForAvgHopsComp)
scalar OPSHeraldNetwork.host[5] appLikedDataAvgHopCount:last 8.6248348745046
attr source sum(appLikedDataHopsForAvgHopsComp)/sum(appLikedDataHopsCountForAvgHopsComp)
scalar OPSHeraldNetwork.host[5] appTotalDataDeliveryRatio:last 0.083461962513782
attr source sum(appTotalDataCountReceivedForRatioComp)/sum(appTotalDataCountMaxReceivableForRatioComp)
scalar OPSHeraldNetwork.host[5] appNonLikedDataDeliveryRatio:last -nan
attr source sum(appNonLikedDataCountReceivedForRatioComp)/sum(appNonLikedDataCountMaxReceivableForRatioComp)
scalar OPSHeraldNetwork.host[5] appLikedDataDeliveryRatio:last 0.33085664335664
attr source sum(appLikedDataCountReceivedForRatioComp)/sum(appLikedDataCountMaxReceivableForRatioComp)
scalar OPSHeraldNetwork.host[5] appTotalDataReceivedAvgDelay:last 3501.9675429326
attr source sum(appTotalDataReceivedDelay)/sum(appTotalDataCountReceivedForAvgDelayComp)
scalar OPSHeraldNetwork.host[5] appNonLikedDataReceivedAvgDelay:last -nan
attr source sum(appNonLikedDataReceivedDelay)/sum(appNonLikedDataCountReceivedForAvgDelayComp)
scalar OPSHeraldNetwork.host[5] appLikedDataReceivedAvgDelay:last 3501.9675429326
attr source sum(appLikedDataReceivedDelay)/sum(appLikedDataCountReceivedForAvgDelayComp)
scalar OPSHeraldNetwork.host[5] appTotalDataCountMaxReceivable:last 9070
attr source sum(appTotalDataCountMaxReceivable)
scalar OPSHeraldNetwork.host[5] appNonLikedDataCountMaxReceivable:last 6782
attr source sum(appNonLikedDataCountMaxReceivable)
scalar OPSHeraldNetwork.host[5] appLikedDataCountMaxReceivable:last 2288
attr source sum(appLikedDataCountMaxReceivable)
scalar OPSHeraldNetwork.host[5] appTotalDataBytesMaxReceivable:last 226915622
attr source sum(appTotalDataBytesMaxReceivable)
scalar OPSHeraldNetwork.host[5] appNonLikedDataBytesMaxReceivable:last 169866115
attr source sum(appNonLikedDataBytesMaxReceivable)
scalar OPSHeraldNetwork.host[5] appLikedDataBytesMaxReceivable:last 57049507
attr source sum(appLikedDataBytesMaxReceivable)
scalar OPSHeraldNetwork.host[5] appTotalDataCountReceived:last 14306
attr source sum(appTotalDataCountReceived)
scalar OPSHeraldNetwork.host[5] appDuplicateDataCountReceived:last 13549
attr source sum(appDuplicateDataCountReceived)
scalar OPSHeraldNetwork.host[5] appNonLikedDataCountReceived:last -nan
attr source sum(appNonLikedDataCountReceived)
scalar OPSHeraldNetwork.host[5] appLikedDataCountReceived:last 757
attr source sum(appLikedDataCountReceived)
scalar OPSHeraldNetwork.host[5] appTotalDataBytesReceived:last 355212598
attr source sum(appTotalDataBytesReceived)
scalar OPSHeraldNetwork.host[5] appDuplicateDataBytesReceived:last 336128643
attr source sum(appDuplicateDataBytesReceived)
scalar OPSHeraldNetwork.host[5] appNonLikedDataBytesReceived:last -nan
attr source sum(appNonLikedDataBytesReceived)
scalar OPSHeraldNetwork.host[5] appLikedDataBytesReceived:last 19083955
attr source sum(appLikedDataBytesReceived)
scalar OPSHeraldNetwork.host[6] linkSimpleNeighbourSize:mean 0.177272
attr source linkSimpleNeighSize
attr title "Simple Neighbour Size, mean"
scalar OPSHeraldNetwork.host[6] linkContactCount:last 112
attr source sum(linkContactCount)
attr title "Contact Count, last"
scalar OPSHeraldNetwork.host[6] linkAvgContactDuration:last 257.5
attr source sum(linkContactDuration)/sum(linkContactDurationCount)
attr title "Average Contact Duration, last"
attr unit s
scalar OPSHeraldNetwork.host[6] linkAvgNeighbourSize:last 0.177272
attr source sum(linkNeighSize)/sum(linkNeighSizeCount)
attr title "Average Neighbour Size, last"
scalar OPSHeraldNetwork.host[6] fwdTotalBytesSent:last 42531736
attr source sum(fwdTotalBytesSent)
attr title "Total Sent, last"
attr unit byte
scalar OPSHeraldNetwork.host[6] fwdDPTableDataBytesSent:last -nan
attr source sum(fwdDPTableDataBytesSent)
attr title "DP Table Data Sent, last"
attr unit byte
scalar OPSHeraldNetwork.host[6] fwdDPTableRequestBytesSent:last -nan
attr source sum(fwdDPTableRequestBytesSent)
attr title "DP Table Requests Sent, last"
attr unit byte
scalar OPSHeraldNetwork.host[6] fwdDataReqBytesSent:last -nan
attr source sum(fwdDataReqBytesSent)
attr title "Data Requests Sent, last"
attr unit byte
scalar OPSHeraldNetwork.host[6] fwdSumVecBytesSent:last -nan
attr source sum(fwdSumVecBytesSent)
attr title "Summary Vectors Sent, last"
attr unit byte
scalar OPSHeraldNetwork.host[6] fwdDataBytesSent:last 42531736
attr source sum(fwdDataBytesSent)
attr title "Data Sent, last"
attr unit byte
scalar OPSHeraldNetwork.host[6] fwdCurrentCacheSizeBytes2:last 94394803086086
attr source fwdCurrentCacheSizeBytes2
attr title "Cache Size, last"
attr unit byte
scalar OPSHeraldNetwork.host[6] fwdCurrentCacheSizeBytes2:mean 95276304791666
attr source fwdCurrentCacheSizeBytes2
attr title "Cache Size, mean"
attr unit byte
scalar OPSHeraldNetwork.host[6] fwdCurrentCacheSizeBytesPeriodic:last 11854598
attr source fwdCurrentCacheSizeBytesPeriodic
attr title "Periodic Cache Size, last"
attr unit byte
scalar OPSHeraldNetwork.host[6] fwdCurrentCacheSizeBytesPeriodic:mean 4377611.6724
attr source fwdCurrentCacheSizeBytesPeriodic
attr title "Periodic Cache Size, mean"
attr unit byte
scalar OPSHeraldNetwork.host[6] fwdCurrentCacheSizeBytesAvg:last 95276304791666
attr source sum(fwdCurrentCacheSizeBytes)/sum(fwdCurrentCacheSizeReportedCount)
attr title "Average Cache Size, last"
attr unit byte
scalar OPSHeraldNetwork.host[6] fwdCacheBytesUpdated:last 32499047
attr source sum(fwdCacheBytesUpdated)
attr title "Cache Updates, last"
attr unit byte
scalar OPSHeraldNetwork.host[6] fwdCacheBytesAdded:last 11854598
attr source sum(fwdCacheBytesAdded)
attr title "Cache Additions, last"
attr unit byte
scalar OPSHeraldNetwork.host[6] fwdCacheBytesRemoved:last -nan
attr source sum(fwdCacheBytesRemoved)
attr title "Cache Removals, last"
attr unit byte
scalar OPSHeraldNetwork.host[6] fwdAvgHopsTravelled:last 25.605911330049
attr source sum(fwdHopsTravelled)/sum(fwdHopsTravelledCount)
attr title "Average Hops Travelled, last"
scalar OPSHeraldNetwork.host[6] fwdTotalBytesReceived:last 65464786
attr source sum(fwdTotalBytesReceived)
attr title "Total Received, last"
attr unit byte
scalar OPSHeraldNetwork.host[6] fwdDPTableDataBytesReceived:last -nan
attr source sum(fwdDPTableDataBytesReceived)
attr title "DP Table Data Received, last"
attr unit byte
scalar OPSHeraldNetwork.host[6] fwdDPTableRequestBytesReceived:last -nan
attr source sum(fwdDPTableRequestBytesReceived)
attr title "DP Table Requests Received, last"
attr unit byte
scalar OPSHeraldNetwork.host[6] fwdDataReqBytesReceived:last -nan
attr source sum(fwdDataReqBytesReceived)
attr title "Data Requests Received, last"
attr unit byte
scalar OPSHeraldNetwork.host[6] fwdSumVecBytesReceived:last -nan
attr source sum(fwdSumVecBytesReceived)
attr title "Summary Vectors Received, last"
attr unit byte
scalar OPSHeraldNetwork.host[6] fwdDataBytesReceived:last 65464786
attr source sum(fwdDataBytesReceived)
attr title "Data Received, last"
attr unit byte
scalar OPSHeraldNetwork.host[6] appTotalDataCountReceived2:last 453
attr source sum(appTotalDataCountReceived2)
scalar OPSHeraldNetwork.host[6] appTotalDataBytesReceived2:last 11095338
attr source sum(appTotalDataBytesReceived2)
scalar OPSHeraldNetwork.host[6] appTotalDataReceivedDelay2:mean 6332.8801513466
attr source appTotalDataReceivedDelay2
scalar OPSHeraldNetwork.host[6] appNonLikedDataReceivedDelay2:mean 75733.688266667
attr source appNonLikedDataReceivedDelay2
scalar OPSHeraldNetwork.host[6] appLikedDataReceivedDelay2:mean 5401.32568
attr source appLikedDataReceivedDelay2
scalar OPSHeraldNetwork.host[6] appTotalDataAvgHopCount:last 13.108167770419
attr source sum(appTotalDataHopsForAvgHopsComp)/sum(appTotalDataHopsCountForAvgHopsComp)
scalar OPSHeraldNetwork.host[6] appNonLikedDataAvgHopCount:last 1
attr source sum(appNonLikedDataHopsForAvgHopsComp)/sum(appNonLikedDataHopsCountForAvgHopsComp)
scalar OPSHeraldNetwork.host[6] appLikedDataAvgHopCount:last 13.270693512304
attr source sum(appLikedDataHopsForAvgHopsComp)/sum(appLikedDataHopsCountForAvgHopsComp)
scalar OPSHeraldNetwork.host[6] appTotalDataDeliveryRatio:last 0.049944873208379
attr source sum(appTotalDataCountReceivedForRatioComp)/sum(appTotalDataCountMaxReceivableForRatioComp)
scalar OPSHeraldNetwork.host[6] appNonLikedDataDeliveryRatio:last 0.00088508629591385
attr source sum(appNonLikedDataCountReceivedForRatioComp)/sum(appNonLikedDataCountMaxReceivableForRatioComp)
scalar OPSHeraldNetwork.host[6] appLikedDataDeliveryRatio:last 0.19511130510694
attr source sum(appLikedDataCountReceivedForRatioComp)/sum(appLikedDataCountMaxReceivableForRatioComp)
scalar OPSHeraldNetwork.host[6] appTotalDataReceivedAvgDelay:last 6332.8801513466
attr source sum(appTotalDataReceivedDelay)/sum(appTotalDataCountReceivedForAvgDelayComp)
scalar OPSHeraldNetwork.host[6] appNonLikedDataReceivedAvgDelay:last 75733.688266667
attr source sum(appNonLikedDataReceivedDelay)/sum(appNonLikedDataCountReceivedForAvgDelayComp)
scalar OPSHeraldNetwork.host[6] appLikedDataReceivedAvgDelay:last 5401.32568
attr source sum(appLikedDataReceivedDelay)/sum(appLikedDataCountReceivedForAvgDelayComp)
scalar OPSHeraldNetwork.host[6] appTotalDataCountMaxReceivable:last 9070
attr source sum(appTotalDataCountMaxReceivable)
scalar OPSHeraldNetwork.host[6] appNonLikedDataCountMaxReceivable:last 6779
attr source sum(appNonLikedDataCountMaxReceivable)
scalar OPSHeraldNetwork.host[6] appLikedDataCountMaxReceivable:last 2291
attr source sum(appLikedDataCountMaxReceivable)
scalar OPSHeraldNetwork.host[6] appTotalDataBytesMaxReceivable:last 226997229
attr source sum(appTotalDataBytesMaxReceivable)
scalar OPSHeraldNetwork.host[6] appNonLikedDataBytesMaxReceivable:last 169772702
attr source sum(appNonLikedDataBytesMaxReceivable)
scalar OPSHeraldNetwork.host[6] appLikedDataBytesMaxReceivable:last 57224527
attr source sum(appLikedDataBytesMaxReceivable)
scalar OPSHeraldNetwork.host[6] appTotalDataCountReceived:last 1718
attr source sum(appTotalDataCountReceived)
scalar OPSHeraldNetwork.host[6] appDuplicateDataCountReceived:last 1265
attr source sum(appDuplicateDataCountReceived)
scalar OPSHeraldNetwork.host[6] appNonLikedDataCountReceived:last 6
attr source sum(appNonLikedDataCountReceived)
scalar OPSHeraldNetwork.host[6] appLikedDataCountReceived:last 447
attr source sum(appLikedDataCountReceived)
scalar OPSHeraldNetwork.host[6] appTotalDataBytesReceived:last 43594385
attr source sum(appTotalDataBytesReceived)
scalar OPSHeraldNetwork.host[6] appDuplicateDataBytesReceived:last 32499047
attr source sum(appDuplicateDataBytesReceived)
scalar OPSHeraldNetwork.host[6] appNonLikedDataBytesReceived:last 96374
attr source sum(appNonLikedDataBytesReceived)
scalar OPSHeraldNetwork.host[6] appLikedDataBytesReceived:last 10998964
attr source sum(appLikedDataBytesReceived)
scalar OPSHeraldNetwork.host[7] linkSimpleNeighbourSize:mean 0.278184
attr source linkSimpleNeighSize
attr title "Simple Neighbour Size, mean"
scalar OPSHeraldNetwork.host[7] linkContactCount:last 19
attr source sum(linkContactCount)
attr title "Contact Count, last"
scalar OPSHeraldNetwork.host[7] linkAvgContactDuration:last 797.21052631579
attr source sum(linkContactDuration)/sum(linkContactDurationCount)
attr title "Average Contact Duration, last"
attr unit s
scalar OPSHeraldNetwork.host[7] linkAvgNeighbourSize:last 0.278184
attr source sum(linkNeighSize)/sum(linkNeighSizeCount)
attr title "Average Neighbour Size, last"
scalar OPSHeraldNetwork.host[7] fwdTotalBytesSent:last 38041497
attr source sum(fwdTotalBytesSent)
attr title "Total Sent, last"
attr unit byte
scalar OPSHeraldNetwork.host[7] fwdDPTableDataBytesSent:last -nan
attr source sum(fwdDPTableDataBytesSent)
attr title "DP Table Data Sent, last"
attr unit byte
scalar OPSHeraldNetwork.host[7] fwdDPTableRequestBytesSent:last -nan
attr source sum(fwdDPTableRequestBytesSent)
attr title "DP Table Requests Sent, last"
attr unit byte
scalar OPSHeraldNetwork.host[7] fwdDataReqBytesSent:last -nan
attr source sum(fwdDataReqBytesSent)
attr title "Data Requests Sent, last"
attr unit byte
scalar OPSHeraldNetwork.host[7] fwdSumVecBytesSent:last -nan
attr source sum(fwdSumVecBytesSent)
attr title "Summary Vectors Sent, last"
attr unit byte
scalar OPSHeraldNetwork.host[7] fwdDataBytesSent:last 38041497
attr source sum(fwdDataBytesSent)
attr title "Data Sent, last"
attr unit byte
scalar OPSHeraldNetwork.host[7] fwdCurrentCacheSizeBytes2:last 1.3981837737081e+14
attr source fwdCurrentCacheSizeBytes2
attr title "Cache Size, last"
attr unit byte
scalar OPSHeraldNetwork.host[7] fwdCurrentCacheSizeBytes2:mean 95343385568123
attr source fwdCurrentCacheSizeBytes2
attr title "Cache Size, mean"
attr unit byte
scalar OPSHeraldNetwork.host[7] fwdCurrentCacheSizeBytesPeriodic:last 12016823
attr source fwdCurrentCacheSizeBytesPeriodic
attr title "Periodic Cache Size, last"
attr unit byte
scalar OPSHeraldNetwork.host[7] fwdCurrentCacheSizeBytesPeriodic:mean 5862548.7736
attr source fwdCurrentCacheSizeBytesPeriodic
attr title "Periodic Cache Size, mean"
attr unit byte
scalar OPSHeraldNetwork.host[7] fwdCurrentCacheSizeBytesAvg:last 95343385568123
attr source sum(fwdCurrentCacheSizeBytes)/sum(fwdCurrentCacheSizeReportedCount)
attr title "Average Cache Size, last"
attr unit byte
scalar OPSHeraldNetwork.host[7] fwdCacheBytesUpdated:last 113335196
attr source sum(fwdCacheBytesUpdated)
attr title "Cache Updates, last"
attr unit byte
scalar OPSHeraldNetwork.host[7] fwdCacheBytesAdded:last 12016823
attr source sum(fwdCacheBytesAdded)
attr title "Cache Additions, last"
attr unit byte
scalar OPSHeraldNetwork.host[7] fwdCacheBytesRemoved:last -nan
attr source sum(fwdCacheBytesRemoved)
attr title "Cache Removals, last"
attr unit byte
scalar OPSHeraldNetwork.host[7] fwdAvgHopsTravelled:last 15.135949764521
attr source sum(fwdHopsTravelled)/sum(fwdHopsTravelledCount)
attr title "Average Hops Travelled, last"
scalar OPSHeraldNetwork.host[7] fwdTotalBytesReceived:last 172357973
attr source sum(fwdTotalBytesReceived)
attr title "Total Received, last"
attr unit byte
scalar OPSHeraldNetwork.host[7] fwdDPTableDataBytesReceived:last -nan
attr source sum(fwdDPTableDataBytesReceived)
attr title "DP Table Data Received, last"
attr unit byte
scalar OPSHeraldNetwork.host[7] fwdDPTableRequestBytesReceived:last -nan
attr source sum(fwdDPTableRequestBytesReceived)
attr title "DP Table Requests Received, last"
attr unit byte
scalar OPSHeraldNetwork.host[7] fwdDataReqBytesReceived:last -nan
attr source sum(fwdDataReqBytesReceived)
attr title "Data Requests Received, last"
attr unit byte
scalar OPSHeraldNetwork.host[7] fwdSumVecBytesReceived:last -nan
attr source sum(fwdSumVecBytesReceived)
attr title "Summary Vectors Received, last"
attr unit byte
scalar OPSHeraldNetwork.host[7] fwdDataBytesReceived:last 172357973
attr source sum(fwdDataBytesReceived)
attr title "Data Received, last"
attr unit byte
scalar OPSHeraldNetwork.host[7] appTotalDataCountReceived2:last 380
attr source sum(appTotalDataCountReceived2)
scalar OPSHeraldNetwork.host[7] appTotalDataBytesReceived2:last 9663311
attr source sum(appTotalDataBytesReceived2)
scalar OPSHeraldNetwork.host[7] appTotalDataReceivedDelay2:mean 4796.2583778947
attr source appTotalDataReceivedDelay2
scalar OPSHeraldNetwork.host[7] appNonLikedDataReceivedDelay2:mean 28657.480976
attr source appNonLikedDataReceivedDelay2
scalar OPSHeraldNetwork.host[7] appLikedDataReceivedDelay2:mean 4151.3604698378
attr source appLikedDataReceivedDelay2
scalar OPSHeraldNetwork.host[7] appTotalDataAvgHopCount:last 11.163157894737
attr source sum(appTotalDataHopsForAvgHopsComp)/sum(appTotalDataHopsCountForAvgHopsComp)
scalar OPSHeraldNetwork.host[7] appNonLikedDataAvgHopCount:last 4.5
attr source sum(appNonLikedDataHopsForAvgHopsComp)/sum(appNonLikedDataHopsCountForAvgHopsComp)
scalar OPSHeraldNetwork.host[7] appLikedDataAvgHopCount:last 11.343243243243
attr source sum(appLikedDataHopsForAvgHopsComp)/sum(appLikedDataHopsCountForAvgHopsComp)
scalar OPSHeraldNetwork.host[7] appTotalDataDeliveryRatio:last 0.042184724689165
attr source sum(appTotalDataCountReceivedForRatioComp)/sum(appTotalDataCountMaxReceivableForRatioComp)
scalar OPSHeraldNetwork.host[7] appNonLikedDataDeliveryRatio:last 0.0014850014850015
attr source sum(appNonLikedDataCountReceivedForRatioComp)/sum(appNonLikedDataCountMaxReceivableForRatioComp)
scalar OPSHeraldNetwork.host[7] appLikedDataDeliveryRatio:last 0.16270888302551
attr source sum(appLikedDataCountReceivedForRatioComp)/sum(appLikedDataCountMaxReceivableForRatioComp)
scalar OPSHeraldNetwork.host[7] appTotalDataReceivedAvgDelay:last 4796.2583778947
attr source sum(appTotalDataReceivedDelay)/sum(appTotalDataCountReceivedForAvgDelayComp)
scalar OPSHeraldNetwork.host[7] appNonLikedDataReceivedAvgDelay:last 28657.480976
attr source sum(appNonLikedDataReceivedDelay)/sum(appNonLikedDataCountReceivedForAvgDelayComp)
scalar OPSHeraldNetwork.host[7] appLikedDataReceivedAvgDelay:last 4151.3604698378
attr source sum(appLikedDataReceivedDelay)/sum(appLikedDataCountReceivedForAvgDelayComp)
scalar OPSHeraldNetwork.host[7] appTotalDataCountMaxReceivable:last 9008
attr source sum(appTotalDataCountMaxReceivable)
scalar OPSHeraldNetwork.host[7] appNonLikedDataCountMaxReceivable:last 6734
attr source sum(appNonLikedDataCountMaxReceivable)
scalar OPSHeraldNetwork.host[7] appLikedDataCountMaxReceivable:last 2274
attr source sum(appLikedDataCountMaxReceivable)
scalar OPSHeraldNetwork.host[7] appTotalDataBytesMaxReceivable:last 225402977
attr source sum(appTotalDataBytesMaxReceivable)
scalar OPSHeraldNetwork.host[7] appNonLikedDataBytesMaxReceivable:last 168627213
attr source sum(appNonLikedDataBytesMaxReceivable)
scalar OPSHeraldNetwork.host[7] appLikedDataBytesMaxReceivable:last 56775764
attr source sum(appLikedDataBytesMaxReceivable)
scalar OPSHeraldNetwork.host[7] appTotalDataCountReceived:last 4501
attr source sum(appTotalDataCountReceived)
scalar OPSHeraldNetwork.host[7] appDuplicateDataCountReceived:last 4121
attr source sum(appDuplicateDataCountReceived)
scalar OPSHeraldNetwork.host[7] appNonLikedDataCountReceived:last 10
attr source sum(appNonLikedDataCountReceived)
scalar OPSHeraldNetwork.host[7] appLikedDataCountReceived:last 370
attr source sum(appLikedDataCountReceived)
scalar OPSHeraldNetwork.host[7] appTotalDataBytesReceived:last 122998507
attr source sum(appTotalDataBytesReceived)
scalar OPSHeraldNetwork.host[7] appDuplicateDataBytesReceived:last 113335196
attr source sum(appDuplicateDataBytesReceived)
scalar OPSHeraldNetwork.host[7] appNonLikedDataBytesReceived:last 261511
attr source sum(appNonLikedDataBytesReceived)
scalar OPSHeraldNetwork.host[7] appLikedDataBytesReceived:last 9401800
attr source sum(appLikedDataBytesReceived)
scalar OPSHeraldNetwork.host[8] linkSimpleNeighbourSize:mean 0.730348
attr source linkSimpleNeighSize
attr title "Simple Neighbour Size, mean"
scalar OPSHeraldNetwork.host[8] linkContactCount:last 252
attr source sum(linkContactCount)
attr title "Contact Count, last"
scalar OPSHeraldNetwork.host[8] linkAvgContactDuration:last 534.20238095238
attr source sum(linkContactDuration)/sum(linkContactDurationCount)
attr title "Average Contact Duration, last"
attr unit s
scalar OPSHeraldNetwork.host[8] linkAvgNeighbourSize:last 0.730348
attr source sum(linkNeighSize)/sum(linkNeighSizeCount)
attr title "Average Neighbour Size, last"
scalar OPSHeraldNetwork.host[8] fwdTotalBytesSent:last 122196300
attr source sum(fwdTotalBytesSent)
attr title "Total Sent, last"
attr unit byte
scalar OPSHeraldNetwork.host[8] fwdDPTableDataBytesSent:last -nan
attr source sum(fwdDPTableDataBytesSent)
attr title "DP Table Data Sent, last"
attr unit byte
scalar OPSHeraldNetwork.host[8] fwdDPTableRequestBytesSent:last -nan
attr source sum(fwdDPTableRequestBytesSent)
attr title "DP Table Requests Sent, last"
attr unit byte
scalar OPSHeraldNetwork.host[8] fwdDataReqBytesSent:last -nan
attr source sum(fwdDataReqBytesSent)
attr title "Data Requests Sent, last"
attr unit byte
scalar OPSHeraldNetwork.host[8] fwdSumVecBytesSent:last -nan
attr source sum(fwdSumVecBytesSent)
attr title "Summary Vectors Sent, last"
attr unit byte
scalar OPSHeraldNetwork.host[8] fwdDataBytesSent:last 122196300
attr source sum(fwdDataBytesSent)
attr title "Data Sent, last"
attr unit byte
scalar OPSHeraldNetwork.host[8] fwdCurrentCacheSizeBytes2:last 94394809798904
attr source fwdCurrentCacheSizeBytes2
attr title "Cache Size, last"
attr unit byte
scalar OPSHeraldNetwork.host[8] fwdCurrentCacheSizeBytes2:mean 94687635441723
attr source fwdCurrentCacheSizeBytes2
attr title "Cache Size, mean"
attr unit byte
scalar OPSHeraldNetwork.host[8] fwdCurrentCacheSizeBytesPeriodic:last 18567416
attr source fwdCurrentCacheSizeBytesPeriodic
attr title "Periodic Cache Size, last"
attr unit byte
scalar OPSHeraldNetwork.host[8] fwdCurrentCacheSizeBytesPeriodic:mean 8347736.0408
attr source fwdCurrentCacheSizeBytesPeriodic
attr title "Periodic Cache Size, mean"
attr unit byte
scalar OPSHeraldNetwork.host[8] fwdCurrentCacheSizeBytesAvg:last 94687635441723
attr source sum(fwdCurrentCacheSizeBytes)/sum(fwdCurrentCacheSizeReportedCount)
attr title "Average Cache Size, last"
attr unit byte
scalar OPSHeraldNetwork.host[8] fwdCacheBytesUpdated:last 106748241
attr source sum(fwdCacheBytesUpdated)
attr title "Cache Updates, last"
attr unit byte
scalar OPSHeraldNetwork.host[8] fwdCacheBytesAdded:last 18567416
attr source sum(fwdCacheBytesAdded)
attr title "Cache Additions, last"
attr unit byte
scalar OPSHeraldNetwork.host[8] fwdCacheBytesRemoved:last -nan
attr source sum(fwdCacheBytesRemoved)
attr title "Cache Removals, last"
attr unit byte
scalar OPSHeraldNetwork.host[8] fwdAvgHopsTravelled:last 34.90930142802
attr source sum(fwdHopsTravelled)/sum(fwdHopsTravelledCount)
attr title "Average Hops Travelled, last"
scalar OPSHeraldNetwork.host[8] fwdTotalBytesReceived:last 185956345
attr source sum(fwdTotalBytesReceived)
attr title "Total Received, last"
attr unit byte
scalar OPSHeraldNetwork.host[8] fwdDPTableDataBytesReceived:last -nan
attr source sum(fwdDPTableDataBytesReceived)
attr title "DP Table Data Received, last"
attr unit byte
scalar OPSHeraldNetwork.host[8] fwdDPTableRequestBytesReceived:last -nan
attr source sum(fwdDPTableRequestBytesReceived)
attr title "DP Table Requests Received, last"
attr unit byte
scalar OPSHeraldNetwork.host[8] fwdDataReqBytesReceived:last -nan
attr source sum(fwdDataReqBytesReceived)
attr title "Data Requests Received, last"
attr unit byte
scalar OPSHeraldNetwork.host[8] fwdSumVecBytesReceived:last -nan
attr source sum(fwdSumVecBytesReceived)
attr title "Summary Vectors Received, last"
attr unit byte
scalar OPSHeraldNetwork.host[8] fwdDataBytesReceived:last 185956345
attr source sum(fwdDataBytesReceived)
attr title "Data Received, last"
attr unit byte
scalar OPSHeraldNetwork.host[8] appTotalDataCountReceived2:last 697
attr source sum(appTotalDataCountReceived2)
scalar OPSHeraldNetwork.host[8] appTotalDataBytesReceived2:last 17718055
attr source sum(appTotalDataBytesReceived2)
scalar OPSHeraldNetwork.host[8] appTotalDataReceivedDelay2:mean 3925.8687924247
attr source appTotalDataReceivedDelay2
scalar OPSHeraldNetwork.host[8] appNonLikedDataReceivedDelay2:mean -nan
attr source appNonLikedDataReceivedDelay2
scalar OPSHeraldNetwork.host[8] appLikedDataReceivedDelay2:mean 3925.8687924247
attr source appLikedDataReceivedDelay2
scalar OPSHeraldNetwork.host[8] appTotalDataAvgHopCount:last 12.134863701578
attr source sum(appTotalDataHopsForAvgHopsComp)/sum(appTotalDataHopsCountForAvgHopsComp)
scalar OPSHeraldNetwork.host[8] appNonLikedDataAvgHopCount:last -nan
attr source sum(appNonLikedDataHopsForAvgHopsComp)/sum(appNonLikedDataHopsCountForAvgHopsComp)
scalar OPSHeraldNetwork.host[8] appLikedDataAvgHopCount:last 12.134863701578
attr source sum(appLikedDataHopsForAvgHopsComp)/sum(appLikedDataHopsCountForAvgHopsComp)
scalar OPSHeraldNetwork.host[8] appTotalDataDeliveryRatio:last 0.076846747519294
attr source sum(appTotalDataCountReceivedForRatioComp)/sum(appTotalDataCountMaxReceivableForRatioComp)
scalar OPSHeraldNetwork.host[8] appNonLikedDataDeliveryRatio:last -nan
attr source sum(appNonLikedDataCountReceivedForRatioComp)/sum(appNonLikedDataCountMaxReceivableForRatioComp)
scalar OPSHeraldNetwork.host[8] appLikedDataDeliveryRatio:last 0.30463286713287
attr source sum(appLikedDataCountReceivedForRatioComp)/sum(appLikedDataCountMaxReceivableForRatioComp)
scalar OPSHeraldNetwork.host[8] appTotalDataReceivedAvgDelay:last 3925.8687924247
attr source sum(appTotalDataReceivedDelay)/sum(appTotalDataCountReceivedForAvgDelayComp)
scalar OPSHeraldNetwork.host[8] appNonLikedDataReceivedAvgDelay:last -nan
attr source sum(appNonLikedDataReceivedDelay)/sum(appNonLikedDataCountReceivedForAvgDelayComp)
scalar OPSHeraldNetwork.host[8] appLikedDataReceivedAvgDelay:last 3925.8687924247
attr source sum(appLikedDataReceivedDelay)/sum(appLikedDataCountReceivedForAvgDelayComp)
scalar OPSHeraldNetwork.host[8] appTotalDataCountMaxReceivable:last 9070
attr source sum(appTotalDataCountMaxReceivable)
scalar OPSHeraldNetwork.host[8] appNonLikedDataCountMaxReceivable:last 6782
attr source sum(appNonLikedDataCountMaxReceivable)
scalar OPSHeraldNetwork.host[8] appLikedDataCountMaxReceivable:last 2288
attr source sum(appLikedDataCountMaxReceivable)
scalar OPSHeraldNetwork.host[8] appTotalDataBytesMaxReceivable:last 226907128
attr source sum(appTotalDataBytesMaxReceivable)
scalar OPSHeraldNetwork.host[8] appNonLikedDataBytesMaxReceivable:last 169747801
attr source sum(appNonLikedDataBytesMaxReceivable)
scalar OPSHeraldNetwork.host[8] appLikedDataBytesMaxReceivable:last 57159327
attr source sum(appLikedDataBytesMaxReceivable)
scalar OPSHeraldNetwork.host[8] appTotalDataCountReceived:last 5240
attr source sum(appTotalDataCountReceived)
scalar OPSHeraldNetwork.host[8] appDuplicateDataCountReceived:last 4543
attr source sum(appDuplicateDataCountReceived)
scalar OPSHeraldNetwork.host[8] appNonLikedDataCountReceived:last -nan
attr source sum(appNonLikedDataCountReceived)
scalar OPSHeraldNetwork.host[8] appLikedDataCountReceived:last 697
attr source sum(appLikedDataCountReceived)
scalar OPSHeraldNetwork.host[8] appTotalDataBytesReceived:last 124466296
attr source sum(appTotalDataBytesReceived)
scalar OPSHeraldNetwork.host[8] appDuplicateDataBytesReceived:last 106748241
attr source sum(appDuplicateDataBytesReceived)
scalar OPSHeraldNetwork.host[8] appNonLikedDataBytesReceived:last -nan
attr source sum(appNonLikedDataBytesReceived)
scalar OPSHeraldNetwork.host[8] appLikedDataBytesReceived:last 17718055
attr source sum(appLikedDataBytesReceived)
scalar OPSHeraldNetwork.host[9] linkSimpleNeighbourSize:mean 2.06802
attr source linkSimpleNeighSize
attr title "Simple Neighbour Size, mean"
scalar OPSHeraldNetwork.host[9] linkContactCount:last 26
attr source sum(linkContactCount)
attr title "Contact Count, last"
scalar OPSHeraldNetwork.host[9] linkAvgContactDuration:last 6724.1538461538
attr source sum(linkContactDuration)/sum(linkContactDurationCount)
attr title "Average Contact Duration, last"
attr unit s
scalar OPSHeraldNetwork.host[9] linkAvgNeighbourSize:last 2.06802
attr source sum(linkNeighSize)/sum(linkNeighSizeCount)
attr title "Average Neighbour Size, last"
scalar OPSHeraldNetwork.host[9] fwdTotalBytesSent:last 207862654
attr source sum(fwdTotalBytesSent)
attr title "Total Sent, last"
attr unit byte
scalar OPSHeraldNetwork.host[9] fwdDPTableDataBytesSent:last -nan
attr source sum(fwdDPTableDataBytesSent)
attr title "DP Table Data Sent, last"
attr unit byte
scalar OPSHeraldNetwork.host[9] fwdDPTableRequestBytesSent:last -nan
attr source sum(fwdDPTableRequestBytesSent)
attr title "DP Table Requests Sent, last"
attr unit byte
scalar OPSHeraldNetwork.host[9] fwdDataReqBytesSent:last -nan
attr source sum(fwdDataReqBytesSent)
attr title "Data Requests Sent, last"
attr unit byte
scalar OPSHeraldNetwork.host[9] fwdSumVecBytesSent:last -nan
attr source sum(fwdSumVecBytesSent)
attr title "Summary Vectors Sent, last"
attr unit byte
scalar OPSHeraldNetwork.host[9] fwdDataBytesSent:last 207862654
attr source sum(fwdDataBytesSent)
attr title "Data Sent, last"
attr unit byte
scalar OPSHeraldNetwork.host[9] fwdCurrentCacheSizeBytes2:last 94394811237035
attr source fwdCurrentCacheSizeBytes2
attr title "Cache Size, last"
attr unit byte
scalar OPSHeraldNetwork.host[9] fwdCurrentCacheSizeBytes2:mean 94503594236399
attr source fwdCurrentCacheSizeBytes2
attr title "Cache Size, mean"
attr unit byte
scalar OPSHeraldNetwork.host[9] fwdCurrentCacheSizeBytesPeriodic:last 20005547
attr source fwdCurrentCacheSizeBytesPeriodic
attr title "Periodic Cache Size, last"
attr unit byte
scalar OPSHeraldNetwork.host[9] fwdCurrentCacheSizeBytesPeriodic:mean 8397442.2564
attr source fwdCurrentCacheSizeBytesPeriodic
attr title "Periodic Cache Size, mean"
attr unit byte
scalar OPSHeraldNetwork.host[9] fwdCurrentCacheSizeBytesAvg:last 94503594236399
attr source sum(fwdCurrentCacheSizeBytes)/sum(fwdCurrentCacheSizeReportedCount)
attr title "Average Cache Size, last"
attr unit byte
scalar OPSHeraldNetwork.host[9] fwdCacheBytesUpdated:last 366024307
attr source sum(fwdCacheBytesUpdated)
attr title "Cache Updates, last"
attr unit byte
scalar OPSHeraldNetwork.host[9] fwdCacheBytesAdded:last 20005547
attr source sum(fwdCacheBytesAdded)
attr title "Cache Additions, last"
attr unit byte
scalar OPSHeraldNetwork.host[9] fwdCacheBytesRemoved:last -nan
attr source sum(fwdCacheBytesRemoved)
attr title "Cache Removals, last"
attr unit byte
scalar OPSHeraldNetwork.host[9] fwdAvgHopsTravelled:last 31.093442622951
attr source sum(fwdHopsTravelled)/sum(fwdHopsTravelledCount)
attr title "Average Hops Travelled, last"
scalar OPSHeraldNetwork.host[9] fwdTotalBytesReceived:last 565158533
attr source sum(fwdTotalBytesReceived)
attr title "Total Received, last"
attr unit byte
scalar OPSHeraldNetwork.host[9] fwdDPTableDataBytesReceived:last -nan
attr source sum(fwdDPTableDataBytesReceived)
attr title "DP Table Data Received, last"
attr unit byte
scalar OPSHeraldNetwork.host[9] fwdDPTableRequestBytesReceived:last -nan
attr source sum(fwdDPTableRequestBytesReceived)
attr title "DP Table Requests Received, last"
attr unit byte
scalar OPSHeraldNetwork.host[9] fwdDataReqBytesReceived:last -nan
attr source sum(fwdDataReqBytesReceived)
attr title "Data Requests Received, last"
attr unit byte
scalar OPSHeraldNetwork.host[9] fwdSumVecBytesReceived:last -nan
attr source sum(fwdSumVecBytesReceived)
attr title "Summary Vectors Received, last"
attr unit byte
scalar OPSHeraldNetwork.host[9] fwdDataBytesReceived:last 565158533
attr source sum(fwdDataBytesReceived)
attr title "Data Received, last"
attr unit byte
scalar OPSHeraldNetwork.host[9] appTotalDataCountReceived2:last 760
attr source sum(appTotalDataCountReceived2)
scalar OPSHeraldNetwork.host[9] appTotalDataBytesReceived2:last 19102430
attr source sum(appTotalDataBytesReceived2)
scalar OPSHeraldNetwork.host[9] appTotalDataReceivedDelay2:mean 3096.9703186316
attr source appTotalDataReceivedDelay2
scalar OPSHeraldNetwork.host[9] appNonLikedDataReceivedDelay2:mean 35109.879376
attr source appNonLikedDataReceivedDelay2
scalar OPSHeraldNetwork.host[9] appLikedDataReceivedDelay2:mean 2884.9642983841
attr source appLikedDataReceivedDelay2
scalar OPSHeraldNetwork.host[9] appTotalDataAvgHopCount:last 8.0407894736842
attr source sum(appTotalDataHopsForAvgHopsComp)/sum(appTotalDataHopsCountForAvgHopsComp)
scalar OPSHeraldNetwork.host[9] appNonLikedDataAvgHopCount:last 1
attr source sum(appNonLikedDataHopsForAvgHopsComp)/sum(appNonLikedDataHopsCountForAvgHopsComp)
scalar OPSHeraldNetwork.host[9] appLikedDataAvgHopCount:last 8.087417218543
attr source sum(appLikedDataHopsForAvgHopsComp)/sum(appLikedDataHopsCountForAvgHopsComp)
scalar OPSHeraldNetwork.host[9] appTotalDataDeliveryRatio:last 0.083829693359806
attr source sum(appTotalDataCountReceivedForRatioComp)/sum(appTotalDataCountMaxReceivableForRatioComp)
scalar OPSHeraldNetwork.host[9] appNonLikedDataDeliveryRatio:last 0.00073789846517119
attr source sum(appNonLikedDataCountReceivedForRatioComp)/sum(appNonLikedDataCountMaxReceivableForRatioComp)
scalar OPSHeraldNetwork.host[9] appLikedDataDeliveryRatio:last 0.3296943231441
attr source sum(appLikedDataCountReceivedForRatioComp)/sum(appLikedDataCountMaxReceivableForRatioComp)
scalar OPSHeraldNetwork.host[9] appTotalDataReceivedAvgDelay:last 3096.9703186316
attr source sum(appTotalDataReceivedDelay)/sum(appTotalDataCountReceivedForAvgDelayComp)
scalar OPSHeraldNetwork.host[9] appNonLikedDataReceivedAvgDelay:last 35109.879376
attr source sum(appNonLikedDataReceivedDelay)/sum(appNonLikedDataCountReceivedForAvgDelayComp)
scalar OPSHeraldNetwork.host[9] appLikedDataReceivedAvgDelay:last 2884.9642983841
attr source sum(appLikedDataReceivedDelay)/sum(appLikedDataCountReceivedForAvgDelayComp)
scalar OPSHeraldNetwork.host[9] appTotalDataCountMaxReceivable:last 9066
attr source sum(appTotalDataCountMaxReceivable)
scalar OPSHeraldNetwork.host[9] appNonLikedDataCountMaxReceivable:last 6776
attr source sum(appNonLikedDataCountMaxReceivable)
scalar OPSHeraldNetwork.host[9] appLikedDataCountMaxReceivable:last 2290
attr source sum(appLikedDataCountMaxReceivable)
scalar OPSHeraldNetwork.host[9] appTotalDataBytesMaxReceivable:last 226853372
attr source sum(appTotalDataBytesMaxReceivable)
scalar OPSHeraldNetwork.host[9] appNonLikedDataBytesMaxReceivable:last 169650841
attr source sum(appNonLikedDataBytesMaxReceivable)
scalar OPSHeraldNetwork.host[9] appLikedDataBytesMaxReceivable:last 57202531
attr source sum(appLikedDataBytesMaxReceivable)
scalar OPSHeraldNetwork.host[9] appTotalDataCountReceived:last 15828
attr source sum(appTotalDataCountReceived)
scalar OPSHeraldNetwork.host[9] appDuplicateDataCountReceived:last 15068
attr source sum(appDuplicateDataCountReceived)
scalar OPSHeraldNetwork.host[9] appNonLikedDataCountReceived:last 5
attr source sum(appNonLikedDataCountReceived)
scalar OPSHeraldNetwork.host[9] appLikedDataCountReceived:last 755
attr source sum(appLikedDataCountReceived)
scalar OPSHeraldNetwork.host[9] appTotalDataBytesReceived:last 385126737
attr source sum(appTotalDataBytesReceived)
[...]
attr unit byte
scalar OPSHeraldNetwork.host[96] fwdDPTableRequestBytesReceived:last -nan
attr source sum(fwdDPTableRequestBytesReceived)
attr title "DP Table Requests Received, last"
attr unit byte
scalar OPSHeraldNetwork.host[96] fwdDataReqBytesReceived:last -nan
attr source sum(fwdDataReqBytesReceived)
attr title "Data Requests Received, last"
attr unit byte
scalar OPSHeraldNetwork.host[96] fwdSumVecBytesReceived:last -nan
attr source sum(fwdSumVecBytesReceived)
attr title "Summary Vectors Received, last"
attr unit byte
scalar OPSHeraldNetwork.host[96] fwdDataBytesReceived:last 22863413
attr source sum(fwdDataBytesReceived)
attr title "Data Received, last"
attr unit byte
scalar OPSHeraldNetwork.host[96] appTotalDataCountReceived2:last 157
attr source sum(appTotalDataCountReceived2)
scalar OPSHeraldNetwork.host[96] appTotalDataBytesReceived2:last 3780741
attr source sum(appTotalDataBytesReceived2)
scalar OPSHeraldNetwork.host[96] appTotalDataReceivedDelay2:mean 5047.0706369427
attr source appTotalDataReceivedDelay2
scalar OPSHeraldNetwork.host[96] appNonLikedDataReceivedDelay2:mean -nan
attr source appNonLikedDataReceivedDelay2
scalar OPSHeraldNetwork.host[96] appLikedDataReceivedDelay2:mean 5047.0706369427
attr source appLikedDataReceivedDelay2
scalar OPSHeraldNetwork.host[96] appTotalDataAvgHopCount:last 10.585987261146
attr source sum(appTotalDataHopsForAvgHopsComp)/sum(appTotalDataHopsCountForAvgHopsComp)
scalar OPSHeraldNetwork.host[96] appNonLikedDataAvgHopCount:last -nan
attr source sum(appNonLikedDataHopsForAvgHopsComp)/sum(appNonLikedDataHopsCountForAvgHopsComp)
scalar OPSHeraldNetwork.host[96] appLikedDataAvgHopCount:last 10.585987261146
attr source sum(appLikedDataHopsForAvgHopsComp)/sum(appLikedDataHopsCountForAvgHopsComp)
scalar OPSHeraldNetwork.host[96] appTotalDataDeliveryRatio:last 0.017444444444444
attr source sum(appTotalDataCountReceivedForRatioComp)/sum(appTotalDataCountMaxReceivableForRatioComp)
scalar OPSHeraldNetwork.host[96] appNonLikedDataDeliveryRatio:last -nan
attr source sum(appNonLikedDataCountReceivedForRatioComp)/sum(appNonLikedDataCountMaxReceivableForRatioComp)
scalar OPSHeraldNetwork.host[96] appLikedDataDeliveryRatio:last 0.069071711394633
attr source sum(appLikedDataCountReceivedForRatioComp)/sum(appLikedDataCountMaxReceivableForRatioComp)
scalar OPSHeraldNetwork.host[96] appTotalDataReceivedAvgDelay:last 5047.0706369427
attr source sum(appTotalDataReceivedDelay)/sum(appTotalDataCountReceivedForAvgDelayComp)
scalar OPSHeraldNetwork.host[96] appNonLikedDataReceivedAvgDelay:last -nan
attr source sum(appNonLikedDataReceivedDelay)/sum(appNonLikedDataCountReceivedForAvgDelayComp)
scalar OPSHeraldNetwork.host[96] appLikedDataReceivedAvgDelay:last 5047.0706369427
attr source sum(appLikedDataReceivedDelay)/sum(appLikedDataCountReceivedForAvgDelayComp)
scalar OPSHeraldNetwork.host[96] appTotalDataCountMaxReceivable:last 9000
attr source sum(appTotalDataCountMaxReceivable)
scalar OPSHeraldNetwork.host[96] appNonLikedDataCountMaxReceivable:last 6727
attr source sum(appNonLikedDataCountMaxReceivable)
scalar OPSHeraldNetwork.host[96] appLikedDataCountMaxReceivable:last 2273
attr source sum(appLikedDataCountMaxReceivable)
scalar OPSHeraldNetwork.host[96] appTotalDataBytesMaxReceivable:last 225266098
attr source sum(appTotalDataBytesMaxReceivable)
scalar OPSHeraldNetwork.host[96] appNonLikedDataBytesMaxReceivable:last 168590670
attr source sum(appNonLikedDataBytesMaxReceivable)
scalar OPSHeraldNetwork.host[96] appLikedDataBytesMaxReceivable:last 56675428
attr source sum(appLikedDataBytesMaxReceivable)
scalar OPSHeraldNetwork.host[96] appTotalDataCountReceived:last 631
attr source sum(appTotalDataCountReceived)
scalar OPSHeraldNetwork.host[96] appDuplicateDataCountReceived:last 474
attr source sum(appDuplicateDataCountReceived)
scalar OPSHeraldNetwork.host[96] appNonLikedDataCountReceived:last -nan
attr source sum(appNonLikedDataCountReceived)
scalar OPSHeraldNetwork.host[96] appLikedDataCountReceived:last 157
attr source sum(appLikedDataCountReceived)
scalar OPSHeraldNetwork.host[96] appTotalDataBytesReceived:last 15250928
attr source sum(appTotalDataBytesReceived)
scalar OPSHeraldNetwork.host[96] appDuplicateDataBytesReceived:last 11470187
attr source sum(appDuplicateDataBytesReceived)
scalar OPSHeraldNetwork.host[96] appNonLikedDataBytesReceived:last -nan
attr source sum(appNonLikedDataBytesReceived)
scalar OPSHeraldNetwork.host[96] appLikedDataBytesReceived:last 3780741
attr source sum(appLikedDataBytesReceived)
scalar OPSHeraldNetwork.host[97] linkSimpleNeighbourSize:mean 0.629776
attr source linkSimpleNeighSize
attr title "Simple Neighbour Size, mean"
scalar OPSHeraldNetwork.host[97] linkContactCount:last 18
attr source sum(linkContactCount)
attr title "Contact Count, last"
scalar OPSHeraldNetwork.host[97] linkAvgContactDuration:last 2127.1111111111
attr source sum(linkContactDuration)/sum(linkContactDurationCount)
attr title "Average Contact Duration, last"
attr unit s
scalar OPSHeraldNetwork.host[97] linkAvgNeighbourSize:last 0.629776
attr source sum(linkNeighSize)/sum(linkNeighSizeCount)
attr title "Average Neighbour Size, last"
scalar OPSHeraldNetwork.host[97] fwdTotalBytesSent:last 98002005
attr source sum(fwdTotalBytesSent)
attr title "Total Sent, last"
attr unit byte
scalar OPSHeraldNetwork.host[97] fwdDPTableDataBytesSent:last -nan
attr source sum(fwdDPTableDataBytesSent)
attr title "DP Table Data Sent, last"
attr unit byte
scalar OPSHeraldNetwork.host[97] fwdDPTableRequestBytesSent:last -nan
attr source sum(fwdDPTableRequestBytesSent)
attr title "DP Table Requests Sent, last"
attr unit byte
scalar OPSHeraldNetwork.host[97] fwdDataReqBytesSent:last -nan
attr source sum(fwdDataReqBytesSent)
attr title "Data Requests Sent, last"
attr unit byte
scalar OPSHeraldNetwork.host[97] fwdSumVecBytesSent:last -nan
attr source sum(fwdSumVecBytesSent)
attr title "Summary Vectors Sent, last"
attr unit byte
scalar OPSHeraldNetwork.host[97] fwdDataBytesSent:last 98002005
attr source sum(fwdDataBytesSent)
attr title "Data Sent, last"
attr unit byte
scalar OPSHeraldNetwork.host[97] fwdCurrentCacheSizeBytes2:last 1.3981837796254e+14
attr source fwdCurrentCacheSizeBytes2
attr title "Cache Size, last"
attr unit byte
scalar OPSHeraldNetwork.host[97] fwdCurrentCacheSizeBytes2:mean 94767810399358
attr source fwdCurrentCacheSizeBytes2
attr title "Cache Size, mean"
attr unit byte
scalar OPSHeraldNetwork.host[97] fwdCurrentCacheSizeBytesPeriodic:last 12608557
attr source fwdCurrentCacheSizeBytesPeriodic
attr title "Periodic Cache Size, last"
attr unit byte
scalar OPSHeraldNetwork.host[97] fwdCurrentCacheSizeBytesPeriodic:mean 8656720.4232
attr source fwdCurrentCacheSizeBytesPeriodic
attr title "Periodic Cache Size, mean"
attr unit byte
scalar OPSHeraldNetwork.host[97] fwdCurrentCacheSizeBytesAvg:last 94767810399358
attr source sum(fwdCurrentCacheSizeBytes)/sum(fwdCurrentCacheSizeReportedCount)
attr title "Average Cache Size, last"
attr unit byte
scalar OPSHeraldNetwork.host[97] fwdCacheBytesUpdated:last 332202725
attr source sum(fwdCacheBytesUpdated)
attr title "Cache Updates, last"
attr unit byte
scalar OPSHeraldNetwork.host[97] fwdCacheBytesAdded:last 12608557
attr source sum(fwdCacheBytesAdded)
attr title "Cache Additions, last"
attr unit byte
scalar OPSHeraldNetwork.host[97] fwdCacheBytesRemoved:last -nan
attr source sum(fwdCacheBytesRemoved)
attr title "Cache Removals, last"
attr unit byte
scalar OPSHeraldNetwork.host[97] fwdAvgHopsTravelled:last 24.508045418665
attr source sum(fwdHopsTravelled)/sum(fwdHopsTravelledCount)
attr title "Average Hops Travelled, last"
scalar OPSHeraldNetwork.host[97] fwdTotalBytesReceived:last 456408387
attr source sum(fwdTotalBytesReceived)
attr title "Total Received, last"
attr unit byte
scalar OPSHeraldNetwork.host[97] fwdDPTableDataBytesReceived:last -nan
attr source sum(fwdDPTableDataBytesReceived)
attr title "DP Table Data Received, last"
attr unit byte
scalar OPSHeraldNetwork.host[97] fwdDPTableRequestBytesReceived:last -nan
attr source sum(fwdDPTableRequestBytesReceived)
attr title "DP Table Requests Received, last"
attr unit byte
scalar OPSHeraldNetwork.host[97] fwdDataReqBytesReceived:last -nan
attr source sum(fwdDataReqBytesReceived)
attr title "Data Requests Received, last"
attr unit byte
scalar OPSHeraldNetwork.host[97] fwdSumVecBytesReceived:last -nan
attr source sum(fwdSumVecBytesReceived)
attr title "Summary Vectors Received, last"
attr unit byte
scalar OPSHeraldNetwork.host[97] fwdDataBytesReceived:last 456408387
attr source sum(fwdDataBytesReceived)
attr title "Data Received, last"
attr unit byte
scalar OPSHeraldNetwork.host[97] appTotalDataCountReceived2:last 400
attr source sum(appTotalDataCountReceived2)
scalar OPSHeraldNetwork.host[97] appTotalDataBytesReceived2:last 10040880
attr source sum(appTotalDataBytesReceived2)
scalar OPSHeraldNetwork.host[97] appTotalDataReceivedDelay2:mean 3152.928198
attr source appTotalDataReceivedDelay2
scalar OPSHeraldNetwork.host[97] appNonLikedDataReceivedDelay2:mean 9969.7386988235
attr source appNonLikedDataReceivedDelay2
scalar OPSHeraldNetwork.host[97] appLikedDataReceivedDelay2:mean 2519.6725777049
attr source appLikedDataReceivedDelay2
scalar OPSHeraldNetwork.host[97] appTotalDataAvgHopCount:last 4.49
attr source sum(appTotalDataHopsForAvgHopsComp)/sum(appTotalDataHopsCountForAvgHopsComp)
scalar OPSHeraldNetwork.host[97] appNonLikedDataAvgHopCount:last 3.7352941176471
attr source sum(appNonLikedDataHopsForAvgHopsComp)/sum(appNonLikedDataHopsCountForAvgHopsComp)
scalar OPSHeraldNetwork.host[97] appLikedDataAvgHopCount:last 4.5601092896175
attr source sum(appLikedDataHopsForAvgHopsComp)/sum(appLikedDataHopsCountForAvgHopsComp)
scalar OPSHeraldNetwork.host[97] appTotalDataDeliveryRatio:last 0.044434570095534
attr source sum(appTotalDataCountReceivedForRatioComp)/sum(appTotalDataCountMaxReceivableForRatioComp)
scalar OPSHeraldNetwork.host[97] appNonLikedDataDeliveryRatio:last 0.005049005049005
attr source sum(appNonLikedDataCountReceivedForRatioComp)/sum(appNonLikedDataCountMaxReceivableForRatioComp)
scalar OPSHeraldNetwork.host[97] appLikedDataDeliveryRatio:last 0.16137566137566
attr source sum(appLikedDataCountReceivedForRatioComp)/sum(appLikedDataCountMaxReceivableForRatioComp)
scalar OPSHeraldNetwork.host[97] appTotalDataReceivedAvgDelay:last 3152.928198
attr source sum(appTotalDataReceivedDelay)/sum(appTotalDataCountReceivedForAvgDelayComp)
scalar OPSHeraldNetwork.host[97] appNonLikedDataReceivedAvgDelay:last 9969.7386988235
attr source sum(appNonLikedDataReceivedDelay)/sum(appNonLikedDataCountReceivedForAvgDelayComp)
scalar OPSHeraldNetwork.host[97] appLikedDataReceivedAvgDelay:last 2519.6725777049
attr source sum(appLikedDataReceivedDelay)/sum(appLikedDataCountReceivedForAvgDelayComp)
scalar OPSHeraldNetwork.host[97] appTotalDataCountMaxReceivable:last 9002
attr source sum(appTotalDataCountMaxReceivable)
scalar OPSHeraldNetwork.host[97] appNonLikedDataCountMaxReceivable:last 6734
attr source sum(appNonLikedDataCountMaxReceivable)
scalar OPSHeraldNetwork.host[97] appLikedDataCountMaxReceivable:last 2268
attr source sum(appLikedDataCountMaxReceivable)
scalar OPSHeraldNetwork.host[97] appTotalDataBytesMaxReceivable:last 225188812
attr source sum(appTotalDataBytesMaxReceivable)
scalar OPSHeraldNetwork.host[97] appNonLikedDataBytesMaxReceivable:last 168457927
attr source sum(appNonLikedDataBytesMaxReceivable)
scalar OPSHeraldNetwork.host[97] appLikedDataBytesMaxReceivable:last 56730885
attr source sum(appLikedDataBytesMaxReceivable)
scalar OPSHeraldNetwork.host[97] appTotalDataCountReceived:last 12319
attr source sum(appTotalDataCountReceived)
scalar OPSHeraldNetwork.host[97] appDuplicateDataCountReceived:last 11919
attr source sum(appDuplicateDataCountReceived)
scalar OPSHeraldNetwork.host[97] appNonLikedDataCountReceived:last 34
attr source sum(appNonLikedDataCountReceived)
scalar OPSHeraldNetwork.host[97] appLikedDataCountReceived:last 366
attr source sum(appLikedDataCountReceived)
scalar OPSHeraldNetwork.host[97] appTotalDataBytesReceived:last 342243605
attr source sum(appTotalDataBytesReceived)
scalar OPSHeraldNetwork.host[97] appDuplicateDataBytesReceived:last 332202725
attr source sum(appDuplicateDataBytesReceived)
scalar OPSHeraldNetwork.host[97] appNonLikedDataBytesReceived:last 793187
attr source sum(appNonLikedDataBytesReceived)
scalar OPSHeraldNetwork.host[97] appLikedDataBytesReceived:last 9247693
attr source sum(appLikedDataBytesReceived)
scalar OPSHeraldNetwork linkSimpleNeighbourSize:mean 1.0356204897959
attr source linkSimpleNeighSize
attr title "Simple Neighbour Size, mean"
scalar OPSHeraldNetwork linkContactCount:last 10054
attr source sum(linkContactCount)
attr title "Contact Count, last"
scalar OPSHeraldNetwork linkAvgContactDuration:last 1050.3012731251
attr source sum(linkContactDuration)/sum(linkContactDurationCount)
attr title "Average Contact Duration, last"
attr unit s
scalar OPSHeraldNetwork linkAvgNeighbourSize:last 1.0356204897959
attr source sum(linkNeighSize)/sum(linkNeighSizeCount)
attr title "Average Neighbour Size, last"
scalar OPSHeraldNetwork fwdTotalBytesSent:last 12207875015
attr source sum(fwdTotalBytesSent)
attr title "Total Sent, last"
attr unit byte
scalar OPSHeraldNetwork fwdDPTableDataBytesSent:last -nan
attr source sum(fwdDPTableDataBytesSent)
attr title "DP Table Data Sent, last"
attr unit byte
scalar OPSHeraldNetwork fwdDPTableRequestBytesSent:last -nan
attr source sum(fwdDPTableRequestBytesSent)
attr title "DP Table Requests Sent, last"
attr unit byte
scalar OPSHeraldNetwork fwdDataReqBytesSent:last -nan
attr source sum(fwdDataReqBytesSent)
attr title "Data Requests Sent, last"
attr unit byte
scalar OPSHeraldNetwork fwdSumVecBytesSent:last -nan
attr source sum(fwdSumVecBytesSent)
attr title "Summary Vectors Sent, last"
attr unit byte
scalar OPSHeraldNetwork fwdDataBytesSent:last 12207875015
attr source sum(fwdDataBytesSent)
attr title "Data Sent, last"
attr unit byte
scalar OPSHeraldNetwork fwdCurrentCacheSizeBytesAvg2:last 94811608025213
attr source mean(fwdCurrentCacheSizeBytes2)
attr title "Average Cache Size, last"
attr unit byte
scalar OPSHeraldNetwork fwdCurrentCacheSizeBytesAvg2:mean 94693950369986
attr source mean(fwdCurrentCacheSizeBytes2)
attr title "Average Cache Size, mean"
attr unit byte
scalar OPSHeraldNetwork fwdCurrentCacheSizeBytesPeriodicAvg:mean 8745140.175449
attr source periodicAverageForAllNodes(fwdCurrentCacheSizeBytesPeriodic)
attr title "Periodic Average Cache Size, mean"
attr unit byte
scalar OPSHeraldNetwork fwdCurrentCacheSizeBytesAvg:last 94811608025213
attr source sum(fwdCurrentCacheSizeBytes)/sum(fwdCurrentCacheSizeReportedCount)
attr title "Average Cache Size, last"
attr unit byte
scalar OPSHeraldNetwork fwdCacheBytesUpdated:last 24151800949
attr source sum(fwdCacheBytesUpdated)
attr title "Cache Updates, last"
attr unit byte
scalar OPSHeraldNetwork fwdCacheBytesAdded:last 1836760921
attr source sum(fwdCacheBytesAdded)
attr title "Cache Additions, last"
attr unit byte
scalar OPSHeraldNetwork fwdCacheBytesRemoved:last -nan
attr source sum(fwdCacheBytesRemoved)
attr title "Cache Removals, last"
attr unit byte
scalar OPSHeraldNetwork fwdAvgHopsTravelled:last 23.899413476619
attr source sum(fwdHopsTravelled)/sum(fwdHopsTravelledCount)
attr title "Average Hops Travelled, last"
scalar OPSHeraldNetwork fwdTotalBytesReceived:last 36604977781
attr source sum(fwdTotalBytesReceived)
attr title "Total Received, last"
attr unit byte
scalar OPSHeraldNetwork fwdDPTableDataBytesReceived:last -nan
attr source sum(fwdDPTableDataBytesReceived)
attr title "DP Table Data Received, last"
attr unit byte
scalar OPSHeraldNetwork fwdDPTableRequestBytesReceived:last -nan
attr source sum(fwdDPTableRequestBytesReceived)
attr title "DP Table Requests Received, last"
attr unit byte
scalar OPSHeraldNetwork fwdDataReqBytesReceived:last -nan
attr source sum(fwdDataReqBytesReceived)
attr title "Data Requests Received, last"
attr unit byte
scalar OPSHeraldNetwork fwdSumVecBytesReceived:last -nan
attr source sum(fwdSumVecBytesReceived)
attr title "Summary Vectors Received, last"
attr unit byte
scalar OPSHeraldNetwork fwdDataBytesReceived:last 36604977781
attr source sum(fwdDataBytesReceived)
attr title "Data Received, last"
attr unit byte
scalar OPSHeraldNetwork appTotalDataCountReceived2:last 64637
attr source sum(appTotalDataCountReceived2)
scalar OPSHeraldNetwork appTotalDataBytesReceived2:last 1609004432
attr source sum(appTotalDataBytesReceived2)
scalar OPSHeraldNetwork appTotalDataReceivedDelay2:mean 5099.5091613968
attr source appTotalDataReceivedDelay2
scalar OPSHeraldNetwork appNonLikedDataReceivedDelay2:mean 20332.425775756
attr source appNonLikedDataReceivedDelay2
scalar OPSHeraldNetwork appLikedDataReceivedDelay2:mean 4319.6424941554
attr source appLikedDataReceivedDelay2
scalar OPSHeraldNetwork appTotalDataAvgHopCount:last 8.4572149078701
attr source sum(appTotalDataHopsForAvgHopsComp)/sum(appTotalDataHopsCountForAvgHopsComp)
scalar OPSHeraldNetwork appNonLikedDataAvgHopCount:last 3.3700762388818
attr source sum(appNonLikedDataHopsForAvgHopsComp)/sum(appNonLikedDataHopsCountForAvgHopsComp)
scalar OPSHeraldNetwork appLikedDataAvgHopCount:last 8.7176568166664
attr source sum(appLikedDataHopsForAvgHopsComp)/sum(appLikedDataHopsCountForAvgHopsComp)
scalar OPSHeraldNetwork appTotalDataDeliveryRatio:last 0.073194290942692
attr source sum(appTotalDataCountReceivedForRatioComp)/sum(appTotalDataCountMaxReceivableForRatioComp)
scalar OPSHeraldNetwork appNonLikedDataDeliveryRatio:last 0.0047697836930368
attr source sum(appNonLikedDataCountReceivedForRatioComp)/sum(appNonLikedDataCountMaxReceivableForRatioComp)
scalar OPSHeraldNetwork appLikedDataDeliveryRatio:last 0.27561183325863
attr source sum(appLikedDataCountReceivedForRatioComp)/sum(appLikedDataCountMaxReceivableForRatioComp)
scalar OPSHeraldNetwork appTotalDataReceivedAvgDelay:last 5099.5091613968
attr source sum(appTotalDataReceivedDelay)/sum(appTotalDataCountReceivedForAvgDelayComp)
scalar OPSHeraldNetwork appNonLikedDataReceivedAvgDelay:last 20332.425775756
attr source sum(appNonLikedDataReceivedDelay)/sum(appNonLikedDataCountReceivedForAvgDelayComp)
scalar OPSHeraldNetwork appLikedDataReceivedAvgDelay:last 4319.6424941554
attr source sum(appLikedDataReceivedDelay)/sum(appLikedDataCountReceivedForAvgDelayComp)
scalar OPSHeraldNetwork appTotalDataCountMaxReceivable:last 883088
attr source sum(appTotalDataCountMaxReceivable)
scalar OPSHeraldNetwork appNonLikedDataCountMaxReceivable:last 659988
attr source sum(appNonLikedDataCountMaxReceivable)
scalar OPSHeraldNetwork appLikedDataCountMaxReceivable:last 223100
attr source sum(appLikedDataCountMaxReceivable)
scalar OPSHeraldNetwork appTotalDataBytesMaxReceivable:last 22092379433
attr source sum(appTotalDataBytesMaxReceivable)
scalar OPSHeraldNetwork appNonLikedDataBytesMaxReceivable:last 16525887090
attr source sum(appNonLikedDataBytesMaxReceivable)
scalar OPSHeraldNetwork appLikedDataBytesMaxReceivable:last 5566492343
attr source sum(appLikedDataBytesMaxReceivable)
scalar OPSHeraldNetwork appTotalDataCountReceived:last 983047
attr source sum(appTotalDataCountReceived)
scalar OPSHeraldNetwork appDuplicateDataCountReceived:last 918410
attr source sum(appDuplicateDataCountReceived)
scalar OPSHeraldNetwork appNonLikedDataCountReceived:last 3148
attr source sum(appNonLikedDataCountReceived)
scalar OPSHeraldNetwork appLikedDataCountReceived:last 61489
attr source sum(appLikedDataCountReceived)
scalar OPSHeraldNetwork appTotalDataBytesReceived:last 25760805381
attr source sum(appTotalDataBytesReceived)
scalar OPSHeraldNetwork appDuplicateDataBytesReceived:last 24151800949
attr source sum(appDuplicateDataBytesReceived)
scalar OPSHeraldNetwork appNonLikedDataBytesReceived:last 72477640
attr source sum(appNonLikedDataBytesReceived)
scalar OPSHeraldNetwork appLikedDataBytesReceived:last 1536526792
attr source sum(appLikedDataBytesReceived)

