version 2
run General-0-20210104-23:42:53-27626
attr configname General
attr datetime 20210104-23:42:53
attr experiment General
attr inifile omnetpp-herald-epidemic.ini
attr iterationvars ""
attr iterationvarsf ""
attr measurement ""
attr network OPSHeraldNetwork
attr processid 27626
attr repetition 0
attr replication #0
attr resultdir results/
attr runnumber 0
attr seedset 0
param **.numNodes 62
param **.app.dataGenerationInterval 1s
param **.app.dataSizeInBytes 10000
param **.app.popularityAssignmentPercentage 25
param **.app.usedRNG 1
param **.app.mode 0
param **.forwardingLayer "\"KRRSLayer\""
param **.forwarding.maximumCacheSize 100000000byte
param **.forwarding.usedRNG 3
param **.forwarding.broadcastRRS false
param **.forwarding.sendOnNeighReportingFrequency false
param **.forwarding.sendFrequencyWhenNotOnNeighFrequency 4s
param **.link.wirelessRange 30m
param **.link.neighbourScanInterval 1s
param **.link.bandwidthBitRate 100000bps
param **.link.wirelessHeaderSize 16byte
param **.link.usedRNG 4
param **.mobilityType "\"BonnMotionMobility\""
param **.mobility.traceFile "\"all_traces.gpx.movements\""
param **.mobility.nodeId -1

scalar OPSHeraldNetwork.host[0] linkSimpleNeighbourSize:mean 1.3108333333333
attr source linkSimpleNeighSize
attr title "Simple Neighbour Size, mean"
scalar OPSHeraldNetwork.host[0] linkContactCount:last 325
attr source sum(linkContactCount)
attr title "Contact Count, last"
scalar OPSHeraldNetwork.host[0] linkAvgContactDuration:last 21.48
attr source sum(linkContactDuration)/sum(linkContactDurationCount)
attr title "Average Contact Duration, last"
attr unit s
scalar OPSHeraldNetwork.host[0] linkAvgNeighbourSize:last 1.3108333333333
attr source sum(linkNeighSize)/sum(linkNeighSizeCount)
attr title "Average Neighbour Size, last"
scalar OPSHeraldNetwork.host[0] fwdTotalBytesSent:last 39088770
attr source sum(fwdTotalBytesSent)
attr title "Total Sent, last"
attr unit byte
scalar OPSHeraldNetwork.host[0] fwdDPTableDataBytesSent:last -nan
attr source sum(fwdDPTableDataBytesSent)
attr title "DP Table Data Sent, last"
attr unit byte
scalar OPSHeraldNetwork.host[0] fwdDPTableRequestBytesSent:last -nan
attr source sum(fwdDPTableRequestBytesSent)
attr title "DP Table Requests Sent, last"
attr unit byte
scalar OPSHeraldNetwork.host[0] fwdDataReqBytesSent:last -nan
attr source sum(fwdDataReqBytesSent)
attr title "Data Requests Sent, last"
attr unit byte
scalar OPSHeraldNetwork.host[0] fwdSumVecBytesSent:last -nan
attr source sum(fwdSumVecBytesSent)
attr title "Summary Vectors Sent, last"
attr unit byte
scalar OPSHeraldNetwork.host[0] fwdDataBytesSent:last 39088770
attr source sum(fwdDataBytesSent)
attr title "Data Sent, last"
attr unit byte
scalar OPSHeraldNetwork.host[0] fwdCurrentCacheSizeBytes2:last 7351701
attr source fwdCurrentCacheSizeBytes2
attr title "Cache Size, last"
attr unit byte
scalar OPSHeraldNetwork.host[0] fwdCurrentCacheSizeBytes2:mean 4248935.0162287
attr source fwdCurrentCacheSizeBytes2
attr title "Cache Size, mean"
attr unit byte
scalar OPSHeraldNetwork.host[0] fwdCurrentCacheSizeBytesPeriodic:last 7351701
attr source fwdCurrentCacheSizeBytesPeriodic
attr title "Periodic Cache Size, last"
attr unit byte
scalar OPSHeraldNetwork.host[0] fwdCurrentCacheSizeBytesPeriodic:mean 4387420.212963
attr source fwdCurrentCacheSizeBytesPeriodic
attr title "Periodic Cache Size, mean"
attr unit byte
scalar OPSHeraldNetwork.host[0] fwdCurrentCacheSizeBytesAvg:last 4248935.0162287
attr source sum(fwdCurrentCacheSizeBytes)/sum(fwdCurrentCacheSizeReportedCount)
attr title "Average Cache Size, last"
attr unit byte
scalar OPSHeraldNetwork.host[0] fwdCacheBytesUpdated:last 22197220
attr source sum(fwdCacheBytesUpdated)
attr title "Cache Updates, last"
attr unit byte
scalar OPSHeraldNetwork.host[0] fwdCacheBytesAdded:last 7351701
attr source sum(fwdCacheBytesAdded)
attr title "Cache Additions, last"
attr unit byte
scalar OPSHeraldNetwork.host[0] fwdCacheBytesRemoved:last -nan
attr source sum(fwdCacheBytesRemoved)
attr title "Cache Removals, last"
attr unit byte
scalar OPSHeraldNetwork.host[0] fwdAvgHopsTravelled:last 8.2266355140187
attr source sum(fwdHopsTravelled)/sum(fwdHopsTravelledCount)
attr title "Average Hops Travelled, last"
scalar OPSHeraldNetwork.host[0] fwdTotalBytesReceived:last 29304733
attr source sum(fwdTotalBytesReceived)
attr title "Total Received, last"
attr unit byte
scalar OPSHeraldNetwork.host[0] fwdDPTableDataBytesReceived:last -nan
attr source sum(fwdDPTableDataBytesReceived)
attr title "DP Table Data Received, last"
attr unit byte
scalar OPSHeraldNetwork.host[0] fwdDPTableRequestBytesReceived:last -nan
attr source sum(fwdDPTableRequestBytesReceived)
attr title "DP Table Requests Received, last"
attr unit byte
scalar OPSHeraldNetwork.host[0] fwdDataReqBytesReceived:last -nan
attr source sum(fwdDataReqBytesReceived)
attr title "Data Requests Received, last"
attr unit byte
scalar OPSHeraldNetwork.host[0] fwdSumVecBytesReceived:last -nan
attr source sum(fwdSumVecBytesReceived)
attr title "Summary Vectors Received, last"
attr unit byte
scalar OPSHeraldNetwork.host[0] fwdDataBytesReceived:last 29304733
attr source sum(fwdDataBytesReceived)
attr title "Data Received, last"
attr unit byte
scalar OPSHeraldNetwork.host[0] appTotalDataCountReceived2:last 282
attr source sum(appTotalDataCountReceived2)
scalar OPSHeraldNetwork.host[0] appTotalDataBytesReceived2:last 7075413
attr source sum(appTotalDataBytesReceived2)
scalar OPSHeraldNetwork.host[0] appTotalDataReceivedDelay2:mean 3071.194177305
attr source appTotalDataReceivedDelay2
scalar OPSHeraldNetwork.host[0] appNonLikedDataReceivedDelay2:mean 3083.68176657
attr source appNonLikedDataReceivedDelay2
scalar OPSHeraldNetwork.host[0] appLikedDataReceivedDelay2:mean 3036.7284309333
attr source appLikedDataReceivedDelay2
scalar OPSHeraldNetwork.host[0] appTotalDataAvgHopCount:last 5.1489361702128
attr source sum(appTotalDataHopsForAvgHopsComp)/sum(appTotalDataHopsCountForAvgHopsComp)
scalar OPSHeraldNetwork.host[0] appNonLikedDataAvgHopCount:last 5.3381642512077
attr source sum(appNonLikedDataHopsForAvgHopsComp)/sum(appNonLikedDataHopsCountForAvgHopsComp)
scalar OPSHeraldNetwork.host[0] appLikedDataAvgHopCount:last 4.6266666666667
attr source sum(appLikedDataHopsForAvgHopsComp)/sum(appLikedDataHopsCountForAvgHopsComp)
scalar OPSHeraldNetwork.host[0] appTotalDataDeliveryRatio:last 0.3841961852861
attr source sum(appTotalDataCountReceivedForRatioComp)/sum(appTotalDataCountMaxReceivableForRatioComp)
scalar OPSHeraldNetwork.host[0] appNonLikedDataDeliveryRatio:last 0.37704918032787
attr source sum(appNonLikedDataCountReceivedForRatioComp)/sum(appNonLikedDataCountMaxReceivableForRatioComp)
scalar OPSHeraldNetwork.host[0] appLikedDataDeliveryRatio:last 0.40540540540541
attr source sum(appLikedDataCountReceivedForRatioComp)/sum(appLikedDataCountMaxReceivableForRatioComp)
scalar OPSHeraldNetwork.host[0] appTotalDataReceivedAvgDelay:last 3071.194177305
attr source sum(appTotalDataReceivedDelay)/sum(appTotalDataCountReceivedForAvgDelayComp)
scalar OPSHeraldNetwork.host[0] appNonLikedDataReceivedAvgDelay:last 3083.68176657
attr source sum(appNonLikedDataReceivedDelay)/sum(appNonLikedDataCountReceivedForAvgDelayComp)
scalar OPSHeraldNetwork.host[0] appLikedDataReceivedAvgDelay:last 3036.7284309333
attr source sum(appLikedDataReceivedDelay)/sum(appLikedDataCountReceivedForAvgDelayComp)
scalar OPSHeraldNetwork.host[0] appTotalDataCountMaxReceivable:last 734
attr source sum(appTotalDataCountMaxReceivable)
scalar OPSHeraldNetwork.host[0] appNonLikedDataCountMaxReceivable:last 549
attr source sum(appNonLikedDataCountMaxReceivable)
scalar OPSHeraldNetwork.host[0] appLikedDataCountMaxReceivable:last 185
attr source sum(appLikedDataCountMaxReceivable)
scalar OPSHeraldNetwork.host[0] appTotalDataBytesMaxReceivable:last 19232949
attr source sum(appTotalDataBytesMaxReceivable)
scalar OPSHeraldNetwork.host[0] appNonLikedDataBytesMaxReceivable:last 14152550
attr source sum(appNonLikedDataBytesMaxReceivable)
scalar OPSHeraldNetwork.host[0] appLikedDataBytesMaxReceivable:last 5080399
attr source sum(appLikedDataBytesMaxReceivable)
scalar OPSHeraldNetwork.host[0] appTotalDataCountReceived:last 1284
attr source sum(appTotalDataCountReceived)
scalar OPSHeraldNetwork.host[0] appDuplicateDataCountReceived:last 1002
attr source sum(appDuplicateDataCountReceived)
scalar OPSHeraldNetwork.host[0] appNonLikedDataCountReceived:last 207
attr source sum(appNonLikedDataCountReceived)
scalar OPSHeraldNetwork.host[0] appLikedDataCountReceived:last 75
attr source sum(appLikedDataCountReceived)
scalar OPSHeraldNetwork.host[0] appTotalDataBytesReceived:last 29272633
attr source sum(appTotalDataBytesReceived)
scalar OPSHeraldNetwork.host[0] appDuplicateDataBytesReceived:last 22197220
attr source sum(appDuplicateDataBytesReceived)
scalar OPSHeraldNetwork.host[0] appNonLikedDataBytesReceived:last 5064334
attr source sum(appNonLikedDataBytesReceived)
scalar OPSHeraldNetwork.host[0] appLikedDataBytesReceived:last 2011079
attr source sum(appLikedDataBytesReceived)
scalar OPSHeraldNetwork.host[1] linkSimpleNeighbourSize:mean 1.7678703703704
attr source linkSimpleNeighSize
attr title "Simple Neighbour Size, mean"
scalar OPSHeraldNetwork.host[1] linkContactCount:last 216
attr source sum(linkContactCount)
attr title "Contact Count, last"
scalar OPSHeraldNetwork.host[1] linkAvgContactDuration:last 36.444444444444
attr source sum(linkContactDuration)/sum(linkContactDurationCount)
attr title "Average Contact Duration, last"
attr unit s
scalar OPSHeraldNetwork.host[1] linkAvgNeighbourSize:last 1.7678703703704
attr source sum(linkNeighSize)/sum(linkNeighSizeCount)
attr title "Average Neighbour Size, last"
scalar OPSHeraldNetwork.host[1] fwdTotalBytesSent:last 40357213
attr source sum(fwdTotalBytesSent)
attr title "Total Sent, last"
attr unit byte
scalar OPSHeraldNetwork.host[1] fwdDPTableDataBytesSent:last -nan
attr source sum(fwdDPTableDataBytesSent)
attr title "DP Table Data Sent, last"
attr unit byte
scalar OPSHeraldNetwork.host[1] fwdDPTableRequestBytesSent:last -nan
attr source sum(fwdDPTableRequestBytesSent)
attr title "DP Table Requests Sent, last"
attr unit byte
scalar OPSHeraldNetwork.host[1] fwdDataReqBytesSent:last -nan
attr source sum(fwdDataReqBytesSent)
attr title "Data Requests Sent, last"
attr unit byte
scalar OPSHeraldNetwork.host[1] fwdSumVecBytesSent:last -nan
attr source sum(fwdSumVecBytesSent)
attr title "Summary Vectors Sent, last"
attr unit byte
scalar OPSHeraldNetwork.host[1] fwdDataBytesSent:last 40357213
attr source sum(fwdDataBytesSent)
attr title "Data Sent, last"
attr unit byte
scalar OPSHeraldNetwork.host[1] fwdCurrentCacheSizeBytes2:last 7830400
attr source fwdCurrentCacheSizeBytes2
attr title "Cache Size, last"
attr unit byte
scalar OPSHeraldNetwork.host[1] fwdCurrentCacheSizeBytes2:mean 4708528.3246445
attr source fwdCurrentCacheSizeBytes2
attr title "Cache Size, mean"
attr unit byte
scalar OPSHeraldNetwork.host[1] fwdCurrentCacheSizeBytesPeriodic:last 7830400
attr source fwdCurrentCacheSizeBytesPeriodic
attr title "Periodic Cache Size, last"
attr unit byte
scalar OPSHeraldNetwork.host[1] fwdCurrentCacheSizeBytesPeriodic:mean 4724450.3703704
attr source fwdCurrentCacheSizeBytesPeriodic
attr title "Periodic Cache Size, mean"
attr unit byte
scalar OPSHeraldNetwork.host[1] fwdCurrentCacheSizeBytesAvg:last 4708528.3246445
attr source sum(fwdCurrentCacheSizeBytes)/sum(fwdCurrentCacheSizeReportedCount)
attr title "Average Cache Size, last"
attr unit byte
scalar OPSHeraldNetwork.host[1] fwdCacheBytesUpdated:last 31693835
attr source sum(fwdCacheBytesUpdated)
attr title "Cache Updates, last"
attr unit byte
scalar OPSHeraldNetwork.host[1] fwdCacheBytesAdded:last 7830400
attr source sum(fwdCacheBytesAdded)
attr title "Cache Additions, last"
attr unit byte
scalar OPSHeraldNetwork.host[1] fwdCacheBytesRemoved:last -nan
attr source sum(fwdCacheBytesRemoved)
attr title "Cache Removals, last"
attr unit byte
scalar OPSHeraldNetwork.host[1] fwdAvgHopsTravelled:last 8.0882528324389
attr source sum(fwdHopsTravelled)/sum(fwdHopsTravelledCount)
attr title "Average Hops Travelled, last"
scalar OPSHeraldNetwork.host[1] fwdTotalBytesReceived:last 39332244
attr source sum(fwdTotalBytesReceived)
attr title "Total Received, last"
attr unit byte
scalar OPSHeraldNetwork.host[1] fwdDPTableDataBytesReceived:last -nan
attr source sum(fwdDPTableDataBytesReceived)
attr title "DP Table Data Received, last"
attr unit byte
scalar OPSHeraldNetwork.host[1] fwdDPTableRequestBytesReceived:last -nan
attr source sum(fwdDPTableRequestBytesReceived)
attr title "DP Table Requests Received, last"
attr unit byte
scalar OPSHeraldNetwork.host[1] fwdDataReqBytesReceived:last -nan
attr source sum(fwdDataReqBytesReceived)
attr title "Data Requests Received, last"
attr unit byte
scalar OPSHeraldNetwork.host[1] fwdSumVecBytesReceived:last -nan
attr source sum(fwdSumVecBytesReceived)
attr title "Summary Vectors Received, last"
attr unit byte
scalar OPSHeraldNetwork.host[1] fwdDataBytesReceived:last 39332244
attr source sum(fwdDataBytesReceived)
attr title "Data Received, last"
attr unit byte
scalar OPSHeraldNetwork.host[1] appTotalDataCountReceived2:last 302
attr source sum(appTotalDataCountReceived2)
scalar OPSHeraldNetwork.host[1] appTotalDataBytesReceived2:last 7596484
attr source sum(appTotalDataBytesReceived2)
scalar OPSHeraldNetwork.host[1] appTotalDataReceivedDelay2:mean 2806.9387724503
attr source appTotalDataReceivedDelay2
scalar OPSHeraldNetwork.host[1] appNonLikedDataReceivedDelay2:mean 2832.6969862009
attr source appNonLikedDataReceivedDelay2
scalar OPSHeraldNetwork.host[1] appLikedDataReceivedDelay2:mean 2726.1356087671
attr source appLikedDataReceivedDelay2
scalar OPSHeraldNetwork.host[1] appTotalDataAvgHopCount:last 4.8079470198675
attr source sum(appTotalDataHopsForAvgHopsComp)/sum(appTotalDataHopsCountForAvgHopsComp)
scalar OPSHeraldNetwork.host[1] appNonLikedDataAvgHopCount:last 4.8646288209607
attr source sum(appNonLikedDataHopsForAvgHopsComp)/sum(appNonLikedDataHopsCountForAvgHopsComp)
scalar OPSHeraldNetwork.host[1] appLikedDataAvgHopCount:last 4.6301369863014
attr source sum(appLikedDataHopsForAvgHopsComp)/sum(appLikedDataHopsCountForAvgHopsComp)
scalar OPSHeraldNetwork.host[1] appTotalDataDeliveryRatio:last 0.41200545702592
attr source sum(appTotalDataCountReceivedForRatioComp)/sum(appTotalDataCountMaxReceivableForRatioComp)
scalar OPSHeraldNetwork.host[1] appNonLikedDataDeliveryRatio:last 0.41712204007286
attr source sum(appNonLikedDataCountReceivedForRatioComp)/sum(appNonLikedDataCountMaxReceivableForRatioComp)
scalar OPSHeraldNetwork.host[1] appLikedDataDeliveryRatio:last 0.39673913043478
attr source sum(appLikedDataCountReceivedForRatioComp)/sum(appLikedDataCountMaxReceivableForRatioComp)
scalar OPSHeraldNetwork.host[1] appTotalDataReceivedAvgDelay:last 2806.9387724503
attr source sum(appTotalDataReceivedDelay)/sum(appTotalDataCountReceivedForAvgDelayComp)
scalar OPSHeraldNetwork.host[1] appNonLikedDataReceivedAvgDelay:last 2832.6969862009
attr source sum(appNonLikedDataReceivedDelay)/sum(appNonLikedDataCountReceivedForAvgDelayComp)
scalar OPSHeraldNetwork.host[1] appLikedDataReceivedAvgDelay:last 2726.1356087671
attr source sum(appLikedDataReceivedDelay)/sum(appLikedDataCountReceivedForAvgDelayComp)
scalar OPSHeraldNetwork.host[1] appTotalDataCountMaxReceivable:last 733
attr source sum(appTotalDataCountMaxReceivable)
scalar OPSHeraldNetwork.host[1] appNonLikedDataCountMaxReceivable:last 549
attr source sum(appNonLikedDataCountMaxReceivable)
scalar OPSHeraldNetwork.host[1] appLikedDataCountMaxReceivable:last 184
attr source sum(appLikedDataCountMaxReceivable)
scalar OPSHeraldNetwork.host[1] appTotalDataBytesMaxReceivable:last 19275321
attr source sum(appTotalDataBytesMaxReceivable)
scalar OPSHeraldNetwork.host[1] appNonLikedDataBytesMaxReceivable:last 14225857
attr source sum(appNonLikedDataBytesMaxReceivable)
scalar OPSHeraldNetwork.host[1] appLikedDataBytesMaxReceivable:last 5049464
attr source sum(appLikedDataBytesMaxReceivable)
scalar OPSHeraldNetwork.host[1] appTotalDataCountReceived:last 1677
attr source sum(appTotalDataCountReceived)
scalar OPSHeraldNetwork.host[1] appDuplicateDataCountReceived:last 1375
attr source sum(appDuplicateDataCountReceived)
scalar OPSHeraldNetwork.host[1] appNonLikedDataCountReceived:last 229
attr source sum(appNonLikedDataCountReceived)
scalar OPSHeraldNetwork.host[1] appLikedDataCountReceived:last 73
attr source sum(appLikedDataCountReceived)
scalar OPSHeraldNetwork.host[1] appTotalDataBytesReceived:last 39290319
attr source sum(appTotalDataBytesReceived)
scalar OPSHeraldNetwork.host[1] appDuplicateDataBytesReceived:last 31693835
attr source sum(appDuplicateDataBytesReceived)
scalar OPSHeraldNetwork.host[1] appNonLikedDataBytesReceived:last 5696984
attr source sum(appNonLikedDataBytesReceived)
scalar OPSHeraldNetwork.host[1] appLikedDataBytesReceived:last 1899500
attr source sum(appLikedDataBytesReceived)
scalar OPSHeraldNetwork.host[2] linkSimpleNeighbourSize:mean 1.2834259259259
attr source linkSimpleNeighSize
attr title "Simple Neighbour Size, mean"
scalar OPSHeraldNetwork.host[2] linkContactCount:last 351
attr source sum(linkContactCount)
attr title "Contact Count, last"
scalar OPSHeraldNetwork.host[2] linkAvgContactDuration:last 19.034188034188
attr source sum(linkContactDuration)/sum(linkContactDurationCount)
attr title "Average Contact Duration, last"
attr unit s
scalar OPSHeraldNetwork.host[2] linkAvgNeighbourSize:last 1.2834259259259
attr source sum(linkNeighSize)/sum(linkNeighSizeCount)
attr title "Average Neighbour Size, last"
scalar OPSHeraldNetwork.host[2] fwdTotalBytesSent:last 37772345
attr source sum(fwdTotalBytesSent)
attr title "Total Sent, last"
attr unit byte
scalar OPSHeraldNetwork.host[2] fwdDPTableDataBytesSent:last -nan
attr source sum(fwdDPTableDataBytesSent)
attr title "DP Table Data Sent, last"
attr unit byte
scalar OPSHeraldNetwork.host[2] fwdDPTableRequestBytesSent:last -nan
attr source sum(fwdDPTableRequestBytesSent)
attr title "DP Table Requests Sent, last"
attr unit byte
scalar OPSHeraldNetwork.host[2] fwdDataReqBytesSent:last -nan
attr source sum(fwdDataReqBytesSent)
attr title "Data Requests Sent, last"
attr unit byte
scalar OPSHeraldNetwork.host[2] fwdSumVecBytesSent:last -nan
attr source sum(fwdSumVecBytesSent)
attr title "Summary Vectors Sent, last"
attr unit byte
scalar OPSHeraldNetwork.host[2] fwdDataBytesSent:last 37772345
attr source sum(fwdDataBytesSent)
attr title "Data Sent, last"
attr unit byte
scalar OPSHeraldNetwork.host[2] fwdCurrentCacheSizeBytes2:last 7765803
attr source fwdCurrentCacheSizeBytes2
attr title "Cache Size, last"
attr unit byte
scalar OPSHeraldNetwork.host[2] fwdCurrentCacheSizeBytes2:mean 4795652.1656347
attr source fwdCurrentCacheSizeBytes2
attr title "Cache Size, mean"
attr unit byte
scalar OPSHeraldNetwork.host[2] fwdCurrentCacheSizeBytesPeriodic:last 7765803
attr source fwdCurrentCacheSizeBytesPeriodic
attr title "Periodic Cache Size, last"
attr unit byte
scalar OPSHeraldNetwork.host[2] fwdCurrentCacheSizeBytesPeriodic:mean 4484070.6388889
attr source fwdCurrentCacheSizeBytesPeriodic
attr title "Periodic Cache Size, mean"
attr unit byte
scalar OPSHeraldNetwork.host[2] fwdCurrentCacheSizeBytesAvg:last 4795652.1656347
attr source sum(fwdCurrentCacheSizeBytes)/sum(fwdCurrentCacheSizeReportedCount)
attr title "Average Cache Size, last"
attr unit byte
scalar OPSHeraldNetwork.host[2] fwdCacheBytesUpdated:last 21436620
attr source sum(fwdCacheBytesUpdated)
attr title "Cache Updates, last"
attr unit byte
scalar OPSHeraldNetwork.host[2] fwdCacheBytesAdded:last 7765803
attr source sum(fwdCacheBytesAdded)
attr title "Cache Additions, last"
attr unit byte
scalar OPSHeraldNetwork.host[2] fwdCacheBytesRemoved:last -nan
attr source sum(fwdCacheBytesRemoved)
attr title "Cache Removals, last"
attr unit byte
scalar OPSHeraldNetwork.host[2] fwdAvgHopsTravelled:last 8.4184231069477
attr source sum(fwdHopsTravelled)/sum(fwdHopsTravelledCount)
attr title "Average Hops Travelled, last"
scalar OPSHeraldNetwork.host[2] fwdTotalBytesReceived:last 28983392
attr source sum(fwdTotalBytesReceived)
attr title "Total Received, last"
attr unit byte
scalar OPSHeraldNetwork.host[2] fwdDPTableDataBytesReceived:last -nan
attr source sum(fwdDPTableDataBytesReceived)
attr title "DP Table Data Received, last"
attr unit byte
scalar OPSHeraldNetwork.host[2] fwdDPTableRequestBytesReceived:last -nan
attr source sum(fwdDPTableRequestBytesReceived)
attr title "DP Table Requests Received, last"
attr unit byte
scalar OPSHeraldNetwork.host[2] fwdDataReqBytesReceived:last -nan
attr source sum(fwdDataReqBytesReceived)
attr title "Data Requests Received, last"
attr unit byte
scalar OPSHeraldNetwork.host[2] fwdSumVecBytesReceived:last -nan
attr source sum(fwdSumVecBytesReceived)
attr title "Summary Vectors Received, last"
attr unit byte
scalar OPSHeraldNetwork.host[2] fwdDataBytesReceived:last 28983392
attr source sum(fwdDataBytesReceived)
attr title "Data Received, last"
attr unit byte
scalar OPSHeraldNetwork.host[2] appTotalDataCountReceived2:last 300
attr source sum(appTotalDataCountReceived2)
scalar OPSHeraldNetwork.host[2] appTotalDataBytesReceived2:last 7514747
attr source sum(appTotalDataBytesReceived2)
scalar OPSHeraldNetwork.host[2] appTotalDataReceivedDelay2:mean 2976.4605458667
attr source appTotalDataReceivedDelay2
scalar OPSHeraldNetwork.host[2] appNonLikedDataReceivedDelay2:mean 2985.9117180444
attr source appNonLikedDataReceivedDelay2
scalar OPSHeraldNetwork.host[2] appLikedDataReceivedDelay2:mean 2948.1070293333
attr source appLikedDataReceivedDelay2
scalar OPSHeraldNetwork.host[2] appTotalDataAvgHopCount:last 5.0966666666667
attr source sum(appTotalDataHopsForAvgHopsComp)/sum(appTotalDataHopsCountForAvgHopsComp)
scalar OPSHeraldNetwork.host[2] appNonLikedDataAvgHopCount:last 5.2533333333333
attr source sum(appNonLikedDataHopsForAvgHopsComp)/sum(appNonLikedDataHopsCountForAvgHopsComp)
scalar OPSHeraldNetwork.host[2] appLikedDataAvgHopCount:last 4.6266666666667
attr source sum(appLikedDataHopsForAvgHopsComp)/sum(appLikedDataHopsCountForAvgHopsComp)
scalar OPSHeraldNetwork.host[2] appTotalDataDeliveryRatio:last 0.40927694406548
attr source sum(appTotalDataCountReceivedForRatioComp)/sum(appTotalDataCountMaxReceivableForRatioComp)
scalar OPSHeraldNetwork.host[2] appNonLikedDataDeliveryRatio:last 0.40687160940325
attr source sum(appNonLikedDataCountReceivedForRatioComp)/sum(appNonLikedDataCountMaxReceivableForRatioComp)
scalar OPSHeraldNetwork.host[2] appLikedDataDeliveryRatio:last 0.41666666666667
attr source sum(appLikedDataCountReceivedForRatioComp)/sum(appLikedDataCountMaxReceivableForRatioComp)
scalar OPSHeraldNetwork.host[2] appTotalDataReceivedAvgDelay:last 2976.4605458667
attr source sum(appTotalDataReceivedDelay)/sum(appTotalDataCountReceivedForAvgDelayComp)
scalar OPSHeraldNetwork.host[2] appNonLikedDataReceivedAvgDelay:last 2985.9117180444
attr source sum(appNonLikedDataReceivedDelay)/sum(appNonLikedDataCountReceivedForAvgDelayComp)
scalar OPSHeraldNetwork.host[2] appLikedDataReceivedAvgDelay:last 2948.1070293333
attr source sum(appLikedDataReceivedDelay)/sum(appLikedDataCountReceivedForAvgDelayComp)
scalar OPSHeraldNetwork.host[2] appTotalDataCountMaxReceivable:last 733
attr source sum(appTotalDataCountMaxReceivable)
scalar OPSHeraldNetwork.host[2] appNonLikedDataCountMaxReceivable:last 553
attr source sum(appNonLikedDataCountMaxReceivable)
scalar OPSHeraldNetwork.host[2] appLikedDataCountMaxReceivable:last 180
attr source sum(appLikedDataCountMaxReceivable)
scalar OPSHeraldNetwork.host[2] appTotalDataBytesMaxReceivable:last 19258181
attr source sum(appTotalDataBytesMaxReceivable)
scalar OPSHeraldNetwork.host[2] appNonLikedDataBytesMaxReceivable:last 14322470
attr source sum(appNonLikedDataBytesMaxReceivable)
scalar OPSHeraldNetwork.host[2] appLikedDataBytesMaxReceivable:last 4935711
attr source sum(appLikedDataBytesMaxReceivable)
scalar OPSHeraldNetwork.host[2] appTotalDataCountReceived:last 1281
attr source sum(appTotalDataCountReceived)
scalar OPSHeraldNetwork.host[2] appDuplicateDataCountReceived:last 981
attr source sum(appDuplicateDataCountReceived)
scalar OPSHeraldNetwork.host[2] appNonLikedDataCountReceived:last 225
attr source sum(appNonLikedDataCountReceived)
scalar OPSHeraldNetwork.host[2] appLikedDataCountReceived:last 75
attr source sum(appLikedDataCountReceived)
scalar OPSHeraldNetwork.host[2] appTotalDataBytesReceived:last 28951367
attr source sum(appTotalDataBytesReceived)
scalar OPSHeraldNetwork.host[2] appDuplicateDataBytesReceived:last 21436620
attr source sum(appDuplicateDataBytesReceived)
scalar OPSHeraldNetwork.host[2] appNonLikedDataBytesReceived:last 5573732
attr source sum(appNonLikedDataBytesReceived)
scalar OPSHeraldNetwork.host[2] appLikedDataBytesReceived:last 1941015
attr source sum(appLikedDataBytesReceived)
scalar OPSHeraldNetwork.host[3] linkSimpleNeighbourSize:mean 0.7687037037037
attr source linkSimpleNeighSize
attr title "Simple Neighbour Size, mean"
scalar OPSHeraldNetwork.host[3] linkContactCount:last 424
attr source sum(linkContactCount)
attr title "Contact Count, last"
scalar OPSHeraldNetwork.host[3] linkAvgContactDuration:last 12.577830188679
attr source sum(linkContactDuration)/sum(linkContactDurationCount)
attr title "Average Contact Duration, last"
attr unit s
scalar OPSHeraldNetwork.host[3] linkAvgNeighbourSize:last 0.7687037037037
attr source sum(linkNeighSize)/sum(linkNeighSizeCount)
attr title "Average Neighbour Size, last"
scalar OPSHeraldNetwork.host[3] fwdTotalBytesSent:last 30647707
attr source sum(fwdTotalBytesSent)
attr title "Total Sent, last"
attr unit byte
scalar OPSHeraldNetwork.host[3] fwdDPTableDataBytesSent:last -nan
attr source sum(fwdDPTableDataBytesSent)
attr title "DP Table Data Sent, last"
attr unit byte
scalar OPSHeraldNetwork.host[3] fwdDPTableRequestBytesSent:last -nan
attr source sum(fwdDPTableRequestBytesSent)
attr title "DP Table Requests Sent, last"
attr unit byte
scalar OPSHeraldNetwork.host[3] fwdDataReqBytesSent:last -nan
attr source sum(fwdDataReqBytesSent)
attr title "Data Requests Sent, last"
attr unit byte
scalar OPSHeraldNetwork.host[3] fwdSumVecBytesSent:last -nan
attr source sum(fwdSumVecBytesSent)
attr title "Summary Vectors Sent, last"
attr unit byte
scalar OPSHeraldNetwork.host[3] fwdDataBytesSent:last 30647707
attr source sum(fwdDataBytesSent)
attr title "Data Sent, last"
attr unit byte
scalar OPSHeraldNetwork.host[3] fwdCurrentCacheSizeBytes2:last 6858054
attr source fwdCurrentCacheSizeBytes2
attr title "Cache Size, last"
attr unit byte
scalar OPSHeraldNetwork.host[3] fwdCurrentCacheSizeBytes2:mean 3789809.031665
attr source fwdCurrentCacheSizeBytes2
attr title "Cache Size, mean"
attr unit byte
scalar OPSHeraldNetwork.host[3] fwdCurrentCacheSizeBytesPeriodic:last 6858054
attr source fwdCurrentCacheSizeBytesPeriodic
attr title "Periodic Cache Size, last"
attr unit byte
scalar OPSHeraldNetwork.host[3] fwdCurrentCacheSizeBytesPeriodic:mean 3819049.3796296
attr source fwdCurrentCacheSizeBytesPeriodic
attr title "Periodic Cache Size, mean"
attr unit byte
scalar OPSHeraldNetwork.host[3] fwdCurrentCacheSizeBytesAvg:last 3789809.031665
attr source sum(fwdCurrentCacheSizeBytes)/sum(fwdCurrentCacheSizeReportedCount)
attr title "Average Cache Size, last"
attr unit byte
scalar OPSHeraldNetwork.host[3] fwdCacheBytesUpdated:last 14614847
attr source sum(fwdCacheBytesUpdated)
attr title "Cache Updates, last"
attr unit byte
scalar OPSHeraldNetwork.host[3] fwdCacheBytesAdded:last 6858054
attr source sum(fwdCacheBytesAdded)
attr title "Cache Additions, last"
attr unit byte
scalar OPSHeraldNetwork.host[3] fwdCacheBytesRemoved:last -nan
attr source sum(fwdCacheBytesRemoved)
attr title "Cache Removals, last"
attr unit byte
scalar OPSHeraldNetwork.host[3] fwdAvgHopsTravelled:last 8.1424148606811
attr source sum(fwdHopsTravelled)/sum(fwdHopsTravelledCount)
attr title "Average Hops Travelled, last"
scalar OPSHeraldNetwork.host[3] fwdTotalBytesReceived:last 21244337
attr source sum(fwdTotalBytesReceived)
attr title "Total Received, last"
attr unit byte
scalar OPSHeraldNetwork.host[3] fwdDPTableDataBytesReceived:last -nan
attr source sum(fwdDPTableDataBytesReceived)
attr title "DP Table Data Received, last"
attr unit byte
scalar OPSHeraldNetwork.host[3] fwdDPTableRequestBytesReceived:last -nan
attr source sum(fwdDPTableRequestBytesReceived)
attr title "DP Table Requests Received, last"
attr unit byte
scalar OPSHeraldNetwork.host[3] fwdDataReqBytesReceived:last -nan
attr source sum(fwdDataReqBytesReceived)
attr title "Data Requests Received, last"
attr unit byte
scalar OPSHeraldNetwork.host[3] fwdSumVecBytesReceived:last -nan
attr source sum(fwdSumVecBytesReceived)
attr title "Summary Vectors Received, last"
attr unit byte
scalar OPSHeraldNetwork.host[3] fwdDataBytesReceived:last 21244337
attr source sum(fwdDataBytesReceived)
attr title "Data Received, last"
attr unit byte
scalar OPSHeraldNetwork.host[3] appTotalDataCountReceived2:last 263
attr source sum(appTotalDataCountReceived2)
scalar OPSHeraldNetwork.host[3] appTotalDataBytesReceived2:last 6605265
attr source sum(appTotalDataBytesReceived2)
scalar OPSHeraldNetwork.host[3] appTotalDataReceivedDelay2:mean 3363.1064024335
attr source appTotalDataReceivedDelay2
scalar OPSHeraldNetwork.host[3] appNonLikedDataReceivedDelay2:mean 3257.4082080808
attr source appNonLikedDataReceivedDelay2
scalar OPSHeraldNetwork.host[3] appLikedDataReceivedDelay2:mean 3685.0793636923
attr source appLikedDataReceivedDelay2
scalar OPSHeraldNetwork.host[3] appTotalDataAvgHopCount:last 5.4562737642586
attr source sum(appTotalDataHopsForAvgHopsComp)/sum(appTotalDataHopsCountForAvgHopsComp)
scalar OPSHeraldNetwork.host[3] appNonLikedDataAvgHopCount:last 5.5050505050505
attr source sum(appNonLikedDataHopsForAvgHopsComp)/sum(appNonLikedDataHopsCountForAvgHopsComp)
scalar OPSHeraldNetwork.host[3] appLikedDataAvgHopCount:last 5.3076923076923
attr source sum(appLikedDataHopsForAvgHopsComp)/sum(appLikedDataHopsCountForAvgHopsComp)
scalar OPSHeraldNetwork.host[3] appTotalDataDeliveryRatio:last 0.358310626703
attr source sum(appTotalDataCountReceivedForRatioComp)/sum(appTotalDataCountMaxReceivableForRatioComp)
scalar OPSHeraldNetwork.host[3] appNonLikedDataDeliveryRatio:last 0.35869565217391
attr source sum(appNonLikedDataCountReceivedForRatioComp)/sum(appNonLikedDataCountMaxReceivableForRatioComp)
scalar OPSHeraldNetwork.host[3] appLikedDataDeliveryRatio:last 0.35714285714286
attr source sum(appLikedDataCountReceivedForRatioComp)/sum(appLikedDataCountMaxReceivableForRatioComp)
scalar OPSHeraldNetwork.host[3] appTotalDataReceivedAvgDelay:last 3363.1064024335
attr source sum(appTotalDataReceivedDelay)/sum(appTotalDataCountReceivedForAvgDelayComp)
scalar OPSHeraldNetwork.host[3] appNonLikedDataReceivedAvgDelay:last 3257.4082080808
attr source sum(appNonLikedDataReceivedDelay)/sum(appNonLikedDataCountReceivedForAvgDelayComp)
scalar OPSHeraldNetwork.host[3] appLikedDataReceivedAvgDelay:last 3685.0793636923
attr source sum(appLikedDataReceivedDelay)/sum(appLikedDataCountReceivedForAvgDelayComp)
scalar OPSHeraldNetwork.host[3] appTotalDataCountMaxReceivable:last 734
attr source sum(appTotalDataCountMaxReceivable)
scalar OPSHeraldNetwork.host[3] appNonLikedDataCountMaxReceivable:last 552
attr source sum(appNonLikedDataCountMaxReceivable)
scalar OPSHeraldNetwork.host[3] appLikedDataCountMaxReceivable:last 182
attr source sum(appLikedDataCountMaxReceivable)
scalar OPSHeraldNetwork.host[3] appTotalDataBytesMaxReceivable:last 19256448
attr source sum(appTotalDataBytesMaxReceivable)
scalar OPSHeraldNetwork.host[3] appNonLikedDataBytesMaxReceivable:last 14264886
attr source sum(appNonLikedDataBytesMaxReceivable)
scalar OPSHeraldNetwork.host[3] appLikedDataBytesMaxReceivable:last 4991562
attr source sum(appLikedDataBytesMaxReceivable)
scalar OPSHeraldNetwork.host[3] appTotalDataCountReceived:last 969
attr source sum(appTotalDataCountReceived)
scalar OPSHeraldNetwork.host[3] appDuplicateDataCountReceived:last 706
attr source sum(appDuplicateDataCountReceived)
scalar OPSHeraldNetwork.host[3] appNonLikedDataCountReceived:last 198
attr source sum(appNonLikedDataCountReceived)
scalar OPSHeraldNetwork.host[3] appLikedDataCountReceived:last 65
attr source sum(appLikedDataCountReceived)
scalar OPSHeraldNetwork.host[3] appTotalDataBytesReceived:last 21220112
attr source sum(appTotalDataBytesReceived)
scalar OPSHeraldNetwork.host[3] appDuplicateDataBytesReceived:last 14614847
attr source sum(appDuplicateDataBytesReceived)
scalar OPSHeraldNetwork.host[3] appNonLikedDataBytesReceived:last 4937197
attr source sum(appNonLikedDataBytesReceived)
scalar OPSHeraldNetwork.host[3] appLikedDataBytesReceived:last 1668068
attr source sum(appLikedDataBytesReceived)
scalar OPSHeraldNetwork.host[4] linkSimpleNeighbourSize:mean 0.97324074074074
attr source linkSimpleNeighSize
attr title "Simple Neighbour Size, mean"
scalar OPSHeraldNetwork.host[4] linkContactCount:last 422
attr source sum(linkContactCount)
attr title "Contact Count, last"
scalar OPSHeraldNetwork.host[4] linkAvgContactDuration:last 13.440758293839
attr source sum(linkContactDuration)/sum(linkContactDurationCount)
attr title "Average Contact Duration, last"
attr unit s
scalar OPSHeraldNetwork.host[4] linkAvgNeighbourSize:last 0.97324074074074
attr source sum(linkNeighSize)/sum(linkNeighSizeCount)
attr title "Average Neighbour Size, last"
scalar OPSHeraldNetwork.host[4] fwdTotalBytesSent:last 32322488
attr source sum(fwdTotalBytesSent)
attr title "Total Sent, last"
attr unit byte
scalar OPSHeraldNetwork.host[4] fwdDPTableDataBytesSent:last -nan
attr source sum(fwdDPTableDataBytesSent)
attr title "DP Table Data Sent, last"
attr unit byte
scalar OPSHeraldNetwork.host[4] fwdDPTableRequestBytesSent:last -nan
attr source sum(fwdDPTableRequestBytesSent)
attr title "DP Table Requests Sent, last"
attr unit byte
scalar OPSHeraldNetwork.host[4] fwdDataReqBytesSent:last -nan
attr source sum(fwdDataReqBytesSent)
attr title "Data Requests Sent, last"
attr unit byte
scalar OPSHeraldNetwork.host[4] fwdSumVecBytesSent:last -nan
attr source sum(fwdSumVecBytesSent)
attr title "Summary Vectors Sent, last"
attr unit byte
scalar OPSHeraldNetwork.host[4] fwdDataBytesSent:last 32322488
attr source sum(fwdDataBytesSent)
attr title "Data Sent, last"
attr unit byte
scalar OPSHeraldNetwork.host[4] fwdCurrentCacheSizeBytes2:last 7688418
attr source fwdCurrentCacheSizeBytes2
attr title "Cache Size, last"
attr unit byte
scalar OPSHeraldNetwork.host[4] fwdCurrentCacheSizeBytes2:mean 4142818.8211207
attr source fwdCurrentCacheSizeBytes2
attr title "Cache Size, mean"
attr unit byte
scalar OPSHeraldNetwork.host[4] fwdCurrentCacheSizeBytesPeriodic:last 7688418
attr source fwdCurrentCacheSizeBytesPeriodic
attr title "Periodic Cache Size, last"
attr unit byte
scalar OPSHeraldNetwork.host[4] fwdCurrentCacheSizeBytesPeriodic:mean 3921543.2592593
attr source fwdCurrentCacheSizeBytesPeriodic
attr title "Periodic Cache Size, mean"
attr unit byte
scalar OPSHeraldNetwork.host[4] fwdCurrentCacheSizeBytesAvg:last 4142818.8211207
attr source sum(fwdCurrentCacheSizeBytes)/sum(fwdCurrentCacheSizeReportedCount)
attr title "Average Cache Size, last"
attr unit byte
scalar OPSHeraldNetwork.host[4] fwdCacheBytesUpdated:last 13457856
attr source sum(fwdCacheBytesUpdated)
attr title "Cache Updates, last"
attr unit byte
scalar OPSHeraldNetwork.host[4] fwdCacheBytesAdded:last 7688418
attr source sum(fwdCacheBytesAdded)
attr title "Cache Additions, last"
attr unit byte
scalar OPSHeraldNetwork.host[4] fwdCacheBytesRemoved:last -nan
attr source sum(fwdCacheBytesRemoved)
attr title "Cache Removals, last"
attr unit byte
scalar OPSHeraldNetwork.host[4] fwdAvgHopsTravelled:last 8.1417666303162
attr source sum(fwdHopsTravelled)/sum(fwdHopsTravelledCount)
attr title "Average Hops Travelled, last"
scalar OPSHeraldNetwork.host[4] fwdTotalBytesReceived:last 20800268
attr source sum(fwdTotalBytesReceived)
attr title "Total Received, last"
attr unit byte
scalar OPSHeraldNetwork.host[4] fwdDPTableDataBytesReceived:last -nan
attr source sum(fwdDPTableDataBytesReceived)
attr title "DP Table Data Received, last"
attr unit byte
scalar OPSHeraldNetwork.host[4] fwdDPTableRequestBytesReceived:last -nan
attr source sum(fwdDPTableRequestBytesReceived)
attr title "DP Table Requests Received, last"
attr unit byte
scalar OPSHeraldNetwork.host[4] fwdDataReqBytesReceived:last -nan
attr source sum(fwdDataReqBytesReceived)
attr title "Data Requests Received, last"
attr unit byte
scalar OPSHeraldNetwork.host[4] fwdSumVecBytesReceived:last -nan
attr source sum(fwdSumVecBytesReceived)
attr title "Summary Vectors Received, last"
attr unit byte
scalar OPSHeraldNetwork.host[4] fwdDataBytesReceived:last 20800268
attr source sum(fwdDataBytesReceived)
attr title "Data Received, last"
attr unit byte
scalar OPSHeraldNetwork.host[4] appTotalDataCountReceived2:last 287
attr source sum(appTotalDataCountReceived2)
scalar OPSHeraldNetwork.host[4] appTotalDataBytesReceived2:last 7319487
attr source sum(appTotalDataBytesReceived2)
scalar OPSHeraldNetwork.host[4] appTotalDataReceivedDelay2:mean 3417.2223007666
attr source appTotalDataReceivedDelay2
scalar OPSHeraldNetwork.host[4] appNonLikedDataReceivedDelay2:mean 3504.1870096296
attr source appNonLikedDataReceivedDelay2
scalar OPSHeraldNetwork.host[4] appLikedDataReceivedDelay2:mean 3152.6536090141
attr source appLikedDataReceivedDelay2
scalar OPSHeraldNetwork.host[4] appTotalDataAvgHopCount:last 5.4878048780488
attr source sum(appTotalDataHopsForAvgHopsComp)/sum(appTotalDataHopsCountForAvgHopsComp)
scalar OPSHeraldNetwork.host[4] appNonLikedDataAvgHopCount:last 5.5925925925926
attr source sum(appNonLikedDataHopsForAvgHopsComp)/sum(appNonLikedDataHopsCountForAvgHopsComp)
scalar OPSHeraldNetwork.host[4] appLikedDataAvgHopCount:last 5.169014084507
attr source sum(appLikedDataHopsForAvgHopsComp)/sum(appLikedDataHopsCountForAvgHopsComp)
scalar OPSHeraldNetwork.host[4] appTotalDataDeliveryRatio:last 0.39154160982265
attr source sum(appTotalDataCountReceivedForRatioComp)/sum(appTotalDataCountMaxReceivableForRatioComp)
scalar OPSHeraldNetwork.host[4] appNonLikedDataDeliveryRatio:last 0.39201451905626
attr source sum(appNonLikedDataCountReceivedForRatioComp)/sum(appNonLikedDataCountMaxReceivableForRatioComp)
scalar OPSHeraldNetwork.host[4] appLikedDataDeliveryRatio:last 0.39010989010989
attr source sum(appLikedDataCountReceivedForRatioComp)/sum(appLikedDataCountMaxReceivableForRatioComp)
scalar OPSHeraldNetwork.host[4] appTotalDataReceivedAvgDelay:last 3417.2223007666
attr source sum(appTotalDataReceivedDelay)/sum(appTotalDataCountReceivedForAvgDelayComp)
scalar OPSHeraldNetwork.host[4] appNonLikedDataReceivedAvgDelay:last 3504.1870096296
attr source sum(appNonLikedDataReceivedDelay)/sum(appNonLikedDataCountReceivedForAvgDelayComp)
scalar OPSHeraldNetwork.host[4] appLikedDataReceivedAvgDelay:last 3152.6536090141
attr source sum(appLikedDataReceivedDelay)/sum(appLikedDataCountReceivedForAvgDelayComp)
scalar OPSHeraldNetwork.host[4] appTotalDataCountMaxReceivable:last 733
attr source sum(appTotalDataCountMaxReceivable)
scalar OPSHeraldNetwork.host[4] appNonLikedDataCountMaxReceivable:last 551
attr source sum(appNonLikedDataCountMaxReceivable)
scalar OPSHeraldNetwork.host[4] appLikedDataCountMaxReceivable:last 182
attr source sum(appLikedDataCountMaxReceivable)
scalar OPSHeraldNetwork.host[4] appTotalDataBytesMaxReceivable:last 19140306
attr source sum(appTotalDataBytesMaxReceivable)
scalar OPSHeraldNetwork.host[4] appNonLikedDataBytesMaxReceivable:last 14165416
attr source sum(appNonLikedDataBytesMaxReceivable)
scalar OPSHeraldNetwork.host[4] appLikedDataBytesMaxReceivable:last 4974890
attr source sum(appLikedDataBytesMaxReceivable)
scalar OPSHeraldNetwork.host[4] appTotalDataCountReceived:last 917
attr source sum(appTotalDataCountReceived)
scalar OPSHeraldNetwork.host[4] appDuplicateDataCountReceived:last 630
attr source sum(appDuplicateDataCountReceived)
scalar OPSHeraldNetwork.host[4] appNonLikedDataCountReceived:last 216
attr source sum(appNonLikedDataCountReceived)
scalar OPSHeraldNetwork.host[4] appLikedDataCountReceived:last 71
attr source sum(appLikedDataCountReceived)
scalar OPSHeraldNetwork.host[4] appTotalDataBytesReceived:last 20777343
attr source sum(appTotalDataBytesReceived)
scalar OPSHeraldNetwork.host[4] appDuplicateDataBytesReceived:last 13457856
attr source sum(appDuplicateDataBytesReceived)
scalar OPSHeraldNetwork.host[4] appNonLikedDataBytesReceived:last 5378570
attr source sum(appNonLikedDataBytesReceived)
scalar OPSHeraldNetwork.host[4] appLikedDataBytesReceived:last 1940917
attr source sum(appLikedDataBytesReceived)
scalar OPSHeraldNetwork.host[5] linkSimpleNeighbourSize:mean 1.2590740740741
attr source linkSimpleNeighSize
attr title "Simple Neighbour Size, mean"
scalar OPSHeraldNetwork.host[5] linkContactCount:last 306
attr source sum(linkContactCount)
attr title "Contact Count, last"
scalar OPSHeraldNetwork.host[5] linkAvgContactDuration:last 21.683006535948
attr source sum(linkContactDuration)/sum(linkContactDurationCount)
attr title "Average Contact Duration, last"
attr unit s
scalar OPSHeraldNetwork.host[5] linkAvgNeighbourSize:last 1.2590740740741
attr source sum(linkNeighSize)/sum(linkNeighSizeCount)
attr title "Average Neighbour Size, last"
scalar OPSHeraldNetwork.host[5] fwdTotalBytesSent:last 35341180
attr source sum(fwdTotalBytesSent)
attr title "Total Sent, last"
attr unit byte
scalar OPSHeraldNetwork.host[5] fwdDPTableDataBytesSent:last -nan
attr source sum(fwdDPTableDataBytesSent)
attr title "DP Table Data Sent, last"
attr unit byte
scalar OPSHeraldNetwork.host[5] fwdDPTableRequestBytesSent:last -nan
attr source sum(fwdDPTableRequestBytesSent)
attr title "DP Table Requests Sent, last"
attr unit byte
scalar OPSHeraldNetwork.host[5] fwdDataReqBytesSent:last -nan
attr source sum(fwdDataReqBytesSent)
attr title "Data Requests Sent, last"
attr unit byte
scalar OPSHeraldNetwork.host[5] fwdSumVecBytesSent:last -nan
attr source sum(fwdSumVecBytesSent)
attr title "Summary Vectors Sent, last"
attr unit byte
scalar OPSHeraldNetwork.host[5] fwdDataBytesSent:last 35341180
attr source sum(fwdDataBytesSent)
attr title "Data Sent, last"
attr unit byte
scalar OPSHeraldNetwork.host[5] fwdCurrentCacheSizeBytes2:last 7186853
attr source fwdCurrentCacheSizeBytes2
attr title "Cache Size, last"
attr unit byte
scalar OPSHeraldNetwork.host[5] fwdCurrentCacheSizeBytes2:mean 3946459.0148699
attr source fwdCurrentCacheSizeBytes2
attr title "Cache Size, mean"
attr unit byte
scalar OPSHeraldNetwork.host[5] fwdCurrentCacheSizeBytesPeriodic:last 7186853
attr source fwdCurrentCacheSizeBytesPeriodic
attr title "Periodic Cache Size, last"
attr unit byte
scalar OPSHeraldNetwork.host[5] fwdCurrentCacheSizeBytesPeriodic:mean 4007309.7777778
attr source fwdCurrentCacheSizeBytesPeriodic
attr title "Periodic Cache Size, mean"
attr unit byte
scalar OPSHeraldNetwork.host[5] fwdCurrentCacheSizeBytesAvg:last 3946459.0148699
attr source sum(fwdCurrentCacheSizeBytes)/sum(fwdCurrentCacheSizeReportedCount)
attr title "Average Cache Size, last"
attr unit byte
scalar OPSHeraldNetwork.host[5] fwdCacheBytesUpdated:last 18297457
attr source sum(fwdCacheBytesUpdated)
attr title "Cache Updates, last"
attr unit byte
scalar OPSHeraldNetwork.host[5] fwdCacheBytesAdded:last 7186853
attr source sum(fwdCacheBytesAdded)
attr title "Cache Additions, last"
attr unit byte
scalar OPSHeraldNetwork.host[5] fwdCacheBytesRemoved:last -nan
attr source sum(fwdCacheBytesRemoved)
attr title "Cache Removals, last"
attr unit byte
scalar OPSHeraldNetwork.host[5] fwdAvgHopsTravelled:last 8.150234741784
attr source sum(fwdHopsTravelled)/sum(fwdHopsTravelledCount)
attr title "Average Hops Travelled, last"
scalar OPSHeraldNetwork.host[5] fwdTotalBytesReceived:last 25252736
attr source sum(fwdTotalBytesReceived)
attr title "Total Received, last"
attr unit byte
scalar OPSHeraldNetwork.host[5] fwdDPTableDataBytesReceived:last -nan
attr source sum(fwdDPTableDataBytesReceived)
attr title "DP Table Data Received, last"
attr unit byte
scalar OPSHeraldNetwork.host[5] fwdDPTableRequestBytesReceived:last -nan
attr source sum(fwdDPTableRequestBytesReceived)
attr title "DP Table Requests Received, last"
attr unit byte
scalar OPSHeraldNetwork.host[5] fwdDataReqBytesReceived:last -nan
attr source sum(fwdDataReqBytesReceived)
attr title "Data Requests Received, last"
attr unit byte
scalar OPSHeraldNetwork.host[5] fwdSumVecBytesReceived:last -nan
attr source sum(fwdSumVecBytesReceived)
attr title "Summary Vectors Received, last"
attr unit byte
scalar OPSHeraldNetwork.host[5] fwdDataBytesReceived:last 25252736
attr source sum(fwdDataBytesReceived)
attr title "Data Received, last"
attr unit byte
scalar OPSHeraldNetwork.host[5] appTotalDataCountReceived2:last 276
attr source sum(appTotalDataCountReceived2)
scalar OPSHeraldNetwork.host[5] appTotalDataBytesReceived2:last 6928654
attr source sum(appTotalDataBytesReceived2)
scalar OPSHeraldNetwork.host[5] appTotalDataReceivedDelay2:mean 3213.6652086957
attr source appTotalDataReceivedDelay2
scalar OPSHeraldNetwork.host[5] appNonLikedDataReceivedDelay2:mean 3331.9562642308
attr source appNonLikedDataReceivedDelay2
scalar OPSHeraldNetwork.host[5] appLikedDataReceivedDelay2:mean 2851.8337447059
attr source appLikedDataReceivedDelay2
scalar OPSHeraldNetwork.host[5] appTotalDataAvgHopCount:last 5.1702898550725
attr source sum(appTotalDataHopsForAvgHopsComp)/sum(appTotalDataHopsCountForAvgHopsComp)
scalar OPSHeraldNetwork.host[5] appNonLikedDataAvgHopCount:last 5.2692307692308
attr source sum(appNonLikedDataHopsForAvgHopsComp)/sum(appNonLikedDataHopsCountForAvgHopsComp)
scalar OPSHeraldNetwork.host[5] appLikedDataAvgHopCount:last 4.8676470588235
attr source sum(appLikedDataHopsForAvgHopsComp)/sum(appLikedDataHopsCountForAvgHopsComp)
scalar OPSHeraldNetwork.host[5] appTotalDataDeliveryRatio:last 0.37653478854025
attr source sum(appTotalDataCountReceivedForRatioComp)/sum(appTotalDataCountMaxReceivableForRatioComp)
scalar OPSHeraldNetwork.host[5] appNonLikedDataDeliveryRatio:last 0.37818181818182
attr source sum(appNonLikedDataCountReceivedForRatioComp)/sum(appNonLikedDataCountMaxReceivableForRatioComp)
scalar OPSHeraldNetwork.host[5] appLikedDataDeliveryRatio:last 0.37158469945355
attr source sum(appLikedDataCountReceivedForRatioComp)/sum(appLikedDataCountMaxReceivableForRatioComp)
scalar OPSHeraldNetwork.host[5] appTotalDataReceivedAvgDelay:last 3213.6652086957
attr source sum(appTotalDataReceivedDelay)/sum(appTotalDataCountReceivedForAvgDelayComp)
scalar OPSHeraldNetwork.host[5] appNonLikedDataReceivedAvgDelay:last 3331.9562642308
attr source sum(appNonLikedDataReceivedDelay)/sum(appNonLikedDataCountReceivedForAvgDelayComp)
scalar OPSHeraldNetwork.host[5] appLikedDataReceivedAvgDelay:last 2851.8337447059
attr source sum(appLikedDataReceivedDelay)/sum(appLikedDataCountReceivedForAvgDelayComp)
scalar OPSHeraldNetwork.host[5] appTotalDataCountMaxReceivable:last 733
attr source sum(appTotalDataCountMaxReceivable)
scalar OPSHeraldNetwork.host[5] appNonLikedDataCountMaxReceivable:last 550
attr source sum(appNonLikedDataCountMaxReceivable)
scalar OPSHeraldNetwork.host[5] appLikedDataCountMaxReceivable:last 183
attr source sum(appLikedDataCountMaxReceivable)
scalar OPSHeraldNetwork.host[5] appTotalDataBytesMaxReceivable:last 19251038
attr source sum(appTotalDataBytesMaxReceivable)
scalar OPSHeraldNetwork.host[5] appNonLikedDataBytesMaxReceivable:last 14203588
attr source sum(appNonLikedDataBytesMaxReceivable)
scalar OPSHeraldNetwork.host[5] appLikedDataBytesMaxReceivable:last 5047450
attr source sum(appLikedDataBytesMaxReceivable)
scalar OPSHeraldNetwork.host[5] appTotalDataCountReceived:last 1065
attr source sum(appTotalDataCountReceived)
scalar OPSHeraldNetwork.host[5] appDuplicateDataCountReceived:last 789
attr source sum(appDuplicateDataCountReceived)
scalar OPSHeraldNetwork.host[5] appNonLikedDataCountReceived:last 208
attr source sum(appNonLikedDataCountReceived)
scalar OPSHeraldNetwork.host[5] appLikedDataCountReceived:last 68
attr source sum(appLikedDataCountReceived)
scalar OPSHeraldNetwork.host[5] appTotalDataBytesReceived:last 25226111
attr source sum(appTotalDataBytesReceived)
scalar OPSHeraldNetwork.host[5] appDuplicateDataBytesReceived:last 18297457
attr source sum(appDuplicateDataBytesReceived)
scalar OPSHeraldNetwork.host[5] appNonLikedDataBytesReceived:last 5062759
attr source sum(appNonLikedDataBytesReceived)
scalar OPSHeraldNetwork.host[5] appLikedDataBytesReceived:last 1865895
attr source sum(appLikedDataBytesReceived)
scalar OPSHeraldNetwork.host[6] linkSimpleNeighbourSize:mean 0.98731481481481
attr source linkSimpleNeighSize
attr title "Simple Neighbour Size, mean"
scalar OPSHeraldNetwork.host[6] linkContactCount:last 382
attr source sum(linkContactCount)
attr title "Contact Count, last"
scalar OPSHeraldNetwork.host[6] linkAvgContactDuration:last 15.026178010471
attr source sum(linkContactDuration)/sum(linkContactDurationCount)
attr title "Average Contact Duration, last"
attr unit s
scalar OPSHeraldNetwork.host[6] linkAvgNeighbourSize:last 0.98731481481481
attr source sum(linkNeighSize)/sum(linkNeighSizeCount)
attr title "Average Neighbour Size, last"
scalar OPSHeraldNetwork.host[6] fwdTotalBytesSent:last 31811474
attr source sum(fwdTotalBytesSent)
attr title "Total Sent, last"
attr unit byte
scalar OPSHeraldNetwork.host[6] fwdDPTableDataBytesSent:last -nan
attr source sum(fwdDPTableDataBytesSent)
attr title "DP Table Data Sent, last"
attr unit byte
scalar OPSHeraldNetwork.host[6] fwdDPTableRequestBytesSent:last -nan
attr source sum(fwdDPTableRequestBytesSent)
attr title "DP Table Requests Sent, last"
attr unit byte
scalar OPSHeraldNetwork.host[6] fwdDataReqBytesSent:last -nan
attr source sum(fwdDataReqBytesSent)
attr title "Data Requests Sent, last"
attr unit byte
scalar OPSHeraldNetwork.host[6] fwdSumVecBytesSent:last -nan
attr source sum(fwdSumVecBytesSent)
attr title "Summary Vectors Sent, last"
attr unit byte
scalar OPSHeraldNetwork.host[6] fwdDataBytesSent:last 31811474
attr source sum(fwdDataBytesSent)
attr title "Data Sent, last"
attr unit byte
scalar OPSHeraldNetwork.host[6] fwdCurrentCacheSizeBytes2:last 6850255
attr source fwdCurrentCacheSizeBytes2
attr title "Cache Size, last"
attr unit byte
scalar OPSHeraldNetwork.host[6] fwdCurrentCacheSizeBytes2:mean 4271520.0184466
attr source fwdCurrentCacheSizeBytes2
attr title "Cache Size, mean"
attr unit byte
scalar OPSHeraldNetwork.host[6] fwdCurrentCacheSizeBytesPeriodic:last 6850255
attr source fwdCurrentCacheSizeBytesPeriodic
attr title "Periodic Cache Size, last"
attr unit byte
scalar OPSHeraldNetwork.host[6] fwdCurrentCacheSizeBytesPeriodic:mean 4214196.8055556
attr source fwdCurrentCacheSizeBytesPeriodic
attr title "Periodic Cache Size, mean"
attr unit byte
scalar OPSHeraldNetwork.host[6] fwdCurrentCacheSizeBytesAvg:last 4271520.0184466
attr source sum(fwdCurrentCacheSizeBytes)/sum(fwdCurrentCacheSizeReportedCount)
attr title "Average Cache Size, last"
attr unit byte
scalar OPSHeraldNetwork.host[6] fwdCacheBytesUpdated:last 16224902
attr source sum(fwdCacheBytesUpdated)
attr title "Cache Updates, last"
attr unit byte
scalar OPSHeraldNetwork.host[6] fwdCacheBytesAdded:last 6850255
attr source sum(fwdCacheBytesAdded)
attr title "Cache Additions, last"
attr unit byte
scalar OPSHeraldNetwork.host[6] fwdCacheBytesRemoved:last -nan
attr source sum(fwdCacheBytesRemoved)
attr title "Cache Removals, last"
attr unit byte
scalar OPSHeraldNetwork.host[6] fwdAvgHopsTravelled:last 8.1843137254902
attr source sum(fwdHopsTravelled)/sum(fwdHopsTravelledCount)
attr title "Average Hops Travelled, last"
scalar OPSHeraldNetwork.host[6] fwdTotalBytesReceived:last 22866227
attr source sum(fwdTotalBytesReceived)
attr title "Total Received, last"
attr unit byte
scalar OPSHeraldNetwork.host[6] fwdDPTableDataBytesReceived:last -nan
attr source sum(fwdDPTableDataBytesReceived)
attr title "DP Table Data Received, last"
attr unit byte
scalar OPSHeraldNetwork.host[6] fwdDPTableRequestBytesReceived:last -nan
attr source sum(fwdDPTableRequestBytesReceived)
attr title "DP Table Requests Received, last"
attr unit byte
scalar OPSHeraldNetwork.host[6] fwdDataReqBytesReceived:last -nan
attr source sum(fwdDataReqBytesReceived)
attr title "Data Requests Received, last"
attr unit byte
scalar OPSHeraldNetwork.host[6] fwdSumVecBytesReceived:last -nan
attr source sum(fwdSumVecBytesReceived)
attr title "Summary Vectors Received, last"
attr unit byte
scalar OPSHeraldNetwork.host[6] fwdDataBytesReceived:last 22866227
attr source sum(fwdDataBytesReceived)
attr title "Data Received, last"
attr unit byte
scalar OPSHeraldNetwork.host[6] appTotalDataCountReceived2:last 267
attr source sum(appTotalDataCountReceived2)
scalar OPSHeraldNetwork.host[6] appTotalDataBytesReceived2:last 6615825
attr source sum(appTotalDataBytesReceived2)
scalar OPSHeraldNetwork.host[6] appTotalDataReceivedDelay2:mean 2920.9379841199
attr source appTotalDataReceivedDelay2
scalar OPSHeraldNetwork.host[6] appNonLikedDataReceivedDelay2:mean 2985.9558915736
attr source appNonLikedDataReceivedDelay2
scalar OPSHeraldNetwork.host[6] appLikedDataReceivedDelay2:mean 2737.959016
attr source appLikedDataReceivedDelay2
scalar OPSHeraldNetwork.host[6] appTotalDataAvgHopCount:last 5.3558052434457
attr source sum(appTotalDataHopsForAvgHopsComp)/sum(appTotalDataHopsCountForAvgHopsComp)
scalar OPSHeraldNetwork.host[6] appNonLikedDataAvgHopCount:last 5.5634517766497
attr source sum(appNonLikedDataHopsForAvgHopsComp)/sum(appNonLikedDataHopsCountForAvgHopsComp)
scalar OPSHeraldNetwork.host[6] appLikedDataAvgHopCount:last 4.7714285714286
attr source sum(appLikedDataHopsForAvgHopsComp)/sum(appLikedDataHopsCountForAvgHopsComp)
scalar OPSHeraldNetwork.host[6] appTotalDataDeliveryRatio:last 0.36376021798365
attr source sum(appTotalDataCountReceivedForRatioComp)/sum(appTotalDataCountMaxReceivableForRatioComp)
scalar OPSHeraldNetwork.host[6] appNonLikedDataDeliveryRatio:last 0.35883424408015
attr source sum(appNonLikedDataCountReceivedForRatioComp)/sum(appNonLikedDataCountMaxReceivableForRatioComp)
scalar OPSHeraldNetwork.host[6] appLikedDataDeliveryRatio:last 0.37837837837838
attr source sum(appLikedDataCountReceivedForRatioComp)/sum(appLikedDataCountMaxReceivableForRatioComp)
scalar OPSHeraldNetwork.host[6] appTotalDataReceivedAvgDelay:last 2920.9379841199
attr source sum(appTotalDataReceivedDelay)/sum(appTotalDataCountReceivedForAvgDelayComp)
scalar OPSHeraldNetwork.host[6] appNonLikedDataReceivedAvgDelay:last 2985.9558915736
attr source sum(appNonLikedDataReceivedDelay)/sum(appNonLikedDataCountReceivedForAvgDelayComp)
scalar OPSHeraldNetwork.host[6] appLikedDataReceivedAvgDelay:last 2737.959016
attr source sum(appLikedDataReceivedDelay)/sum(appLikedDataCountReceivedForAvgDelayComp)
scalar OPSHeraldNetwork.host[6] appTotalDataCountMaxReceivable:last 734
attr source sum(appTotalDataCountMaxReceivable)
scalar OPSHeraldNetwork.host[6] appNonLikedDataCountMaxReceivable:last 549
attr source sum(appNonLikedDataCountMaxReceivable)
scalar OPSHeraldNetwork.host[6] appLikedDataCountMaxReceivable:last 185
attr source sum(appLikedDataCountMaxReceivable)
scalar OPSHeraldNetwork.host[6] appTotalDataBytesMaxReceivable:last 19274807
attr source sum(appTotalDataBytesMaxReceivable)
scalar OPSHeraldNetwork.host[6] appNonLikedDataBytesMaxReceivable:last 14194408
attr source sum(appNonLikedDataBytesMaxReceivable)
scalar OPSHeraldNetwork.host[6] appLikedDataBytesMaxReceivable:last 5080399
attr source sum(appLikedDataBytesMaxReceivable)
scalar OPSHeraldNetwork.host[6] appTotalDataCountReceived:last 1020
attr source sum(appTotalDataCountReceived)
scalar OPSHeraldNetwork.host[6] appDuplicateDataCountReceived:last 753
attr source sum(appDuplicateDataCountReceived)
scalar OPSHeraldNetwork.host[6] appNonLikedDataCountReceived:last 197
attr source sum(appNonLikedDataCountReceived)
scalar OPSHeraldNetwork.host[6] appLikedDataCountReceived:last 70
attr source sum(appLikedDataCountReceived)
scalar OPSHeraldNetwork.host[6] appTotalDataBytesReceived:last 22840727
attr source sum(appTotalDataBytesReceived)
scalar OPSHeraldNetwork.host[6] appDuplicateDataBytesReceived:last 16224902
attr source sum(appDuplicateDataBytesReceived)
scalar OPSHeraldNetwork.host[6] appNonLikedDataBytesReceived:last 4767056
attr source sum(appNonLikedDataBytesReceived)
scalar OPSHeraldNetwork.host[6] appLikedDataBytesReceived:last 1848769
attr source sum(appLikedDataBytesReceived)
scalar OPSHeraldNetwork.host[7] linkSimpleNeighbourSize:mean 1.1290740740741
attr source linkSimpleNeighSize
attr title "Simple Neighbour Size, mean"
scalar OPSHeraldNetwork.host[7] linkContactCount:last 397
attr source sum(linkContactCount)
attr title "Contact Count, last"
scalar OPSHeraldNetwork.host[7] linkAvgContactDuration:last 16.224181360202
attr source sum(linkContactDuration)/sum(linkContactDurationCount)
attr title "Average Contact Duration, last"
attr unit s
scalar OPSHeraldNetwork.host[7] linkAvgNeighbourSize:last 1.1290740740741
attr source sum(linkNeighSize)/sum(linkNeighSizeCount)
attr title "Average Neighbour Size, last"
scalar OPSHeraldNetwork.host[7] fwdTotalBytesSent:last 37541941
attr source sum(fwdTotalBytesSent)
attr title "Total Sent, last"
attr unit byte
scalar OPSHeraldNetwork.host[7] fwdDPTableDataBytesSent:last -nan
attr source sum(fwdDPTableDataBytesSent)
attr title "DP Table Data Sent, last"
attr unit byte
scalar OPSHeraldNetwork.host[7] fwdDPTableRequestBytesSent:last -nan
attr source sum(fwdDPTableRequestBytesSent)
attr title "DP Table Requests Sent, last"
attr unit byte
scalar OPSHeraldNetwork.host[7] fwdDataReqBytesSent:last -nan
attr source sum(fwdDataReqBytesSent)
attr title "Data Requests Sent, last"
attr unit byte
scalar OPSHeraldNetwork.host[7] fwdSumVecBytesSent:last -nan
attr source sum(fwdSumVecBytesSent)
attr title "Summary Vectors Sent, last"
attr unit byte
scalar OPSHeraldNetwork.host[7] fwdDataBytesSent:last 37541941
attr source sum(fwdDataBytesSent)
attr title "Data Sent, last"
attr unit byte
scalar OPSHeraldNetwork.host[7] fwdCurrentCacheSizeBytes2:last 7381235
attr source fwdCurrentCacheSizeBytes2
attr title "Cache Size, last"
attr unit byte
scalar OPSHeraldNetwork.host[7] fwdCurrentCacheSizeBytes2:mean 4536895.4125214
attr source fwdCurrentCacheSizeBytes2
attr title "Cache Size, mean"
attr unit byte
scalar OPSHeraldNetwork.host[7] fwdCurrentCacheSizeBytesPeriodic:last 7381235
attr source fwdCurrentCacheSizeBytesPeriodic
attr title "Periodic Cache Size, last"
attr unit byte
scalar OPSHeraldNetwork.host[7] fwdCurrentCacheSizeBytesPeriodic:mean 4308949.6388889
attr source fwdCurrentCacheSizeBytesPeriodic
attr title "Periodic Cache Size, mean"
attr unit byte
scalar OPSHeraldNetwork.host[7] fwdCurrentCacheSizeBytesAvg:last 4536895.4125214
attr source sum(fwdCurrentCacheSizeBytes)/sum(fwdCurrentCacheSizeReportedCount)
attr title "Average Cache Size, last"
attr unit byte
scalar OPSHeraldNetwork.host[7] fwdCacheBytesUpdated:last 19398305
attr source sum(fwdCacheBytesUpdated)
attr title "Cache Updates, last"
attr unit byte
scalar OPSHeraldNetwork.host[7] fwdCacheBytesAdded:last 7381235
attr source sum(fwdCacheBytesAdded)
attr title "Cache Additions, last"
attr unit byte
scalar OPSHeraldNetwork.host[7] fwdCacheBytesRemoved:last -nan
attr source sum(fwdCacheBytesRemoved)
attr title "Cache Removals, last"
attr unit byte
scalar OPSHeraldNetwork.host[7] fwdAvgHopsTravelled:last 8.2716262975779
attr source sum(fwdHopsTravelled)/sum(fwdHopsTravelledCount)
attr title "Average Hops Travelled, last"
scalar OPSHeraldNetwork.host[7] fwdTotalBytesReceived:last 26563342
attr source sum(fwdTotalBytesReceived)
attr title "Total Received, last"
attr unit byte
scalar OPSHeraldNetwork.host[7] fwdDPTableDataBytesReceived:last -nan
attr source sum(fwdDPTableDataBytesReceived)
attr title "DP Table Data Received, last"
attr unit byte
scalar OPSHeraldNetwork.host[7] fwdDPTableRequestBytesReceived:last -nan
attr source sum(fwdDPTableRequestBytesReceived)
attr title "DP Table Requests Received, last"
attr unit byte
scalar OPSHeraldNetwork.host[7] fwdDataReqBytesReceived:last -nan
attr source sum(fwdDataReqBytesReceived)
attr title "Data Requests Received, last"
attr unit byte
scalar OPSHeraldNetwork.host[7] fwdSumVecBytesReceived:last -nan
attr source sum(fwdSumVecBytesReceived)
attr title "Summary Vectors Received, last"
attr unit byte
scalar OPSHeraldNetwork.host[7] fwdDataBytesReceived:last 26563342
attr source sum(fwdDataBytesReceived)
attr title "Data Received, last"
attr unit byte
scalar OPSHeraldNetwork.host[7] appTotalDataCountReceived2:last 279
attr source sum(appTotalDataCountReceived2)
scalar OPSHeraldNetwork.host[7] appTotalDataBytesReceived2:last 7136137
attr source sum(appTotalDataBytesReceived2)
scalar OPSHeraldNetwork.host[7] appTotalDataReceivedDelay2:mean 3149.3903443728
attr source appTotalDataReceivedDelay2
scalar OPSHeraldNetwork.host[7] appNonLikedDataReceivedDelay2:mean 3155.9577282243
attr source appNonLikedDataReceivedDelay2
scalar OPSHeraldNetwork.host[7] appLikedDataReceivedDelay2:mean 3127.768496
attr source appLikedDataReceivedDelay2
scalar OPSHeraldNetwork.host[7] appTotalDataAvgHopCount:last 5.1146953405018
attr source sum(appTotalDataHopsForAvgHopsComp)/sum(appTotalDataHopsCountForAvgHopsComp)
scalar OPSHeraldNetwork.host[7] appNonLikedDataAvgHopCount:last 5.0981308411215
attr source sum(appNonLikedDataHopsForAvgHopsComp)/sum(appNonLikedDataHopsCountForAvgHopsComp)
scalar OPSHeraldNetwork.host[7] appLikedDataAvgHopCount:last 5.1692307692308
attr source sum(appLikedDataHopsForAvgHopsComp)/sum(appLikedDataHopsCountForAvgHopsComp)
scalar OPSHeraldNetwork.host[7] appTotalDataDeliveryRatio:last 0.38010899182561
attr source sum(appTotalDataCountReceivedForRatioComp)/sum(appTotalDataCountMaxReceivableForRatioComp)
scalar OPSHeraldNetwork.host[7] appNonLikedDataDeliveryRatio:last 0.38909090909091
attr source sum(appNonLikedDataCountReceivedForRatioComp)/sum(appNonLikedDataCountMaxReceivableForRatioComp)
scalar OPSHeraldNetwork.host[7] appLikedDataDeliveryRatio:last 0.35326086956522
attr source sum(appLikedDataCountReceivedForRatioComp)/sum(appLikedDataCountMaxReceivableForRatioComp)
scalar OPSHeraldNetwork.host[7] appTotalDataReceivedAvgDelay:last 3149.3903443728
attr source sum(appTotalDataReceivedDelay)/sum(appTotalDataCountReceivedForAvgDelayComp)
scalar OPSHeraldNetwork.host[7] appNonLikedDataReceivedAvgDelay:last 3155.9577282243
attr source sum(appNonLikedDataReceivedDelay)/sum(appNonLikedDataCountReceivedForAvgDelayComp)
scalar OPSHeraldNetwork.host[7] appLikedDataReceivedAvgDelay:last 3127.768496
attr source sum(appLikedDataReceivedDelay)/sum(appLikedDataCountReceivedForAvgDelayComp)
scalar OPSHeraldNetwork.host[7] appTotalDataCountMaxReceivable:last 734
attr source sum(appTotalDataCountMaxReceivable)
scalar OPSHeraldNetwork.host[7] appNonLikedDataCountMaxReceivable:last 550
attr source sum(appNonLikedDataCountMaxReceivable)
scalar OPSHeraldNetwork.host[7] appLikedDataCountMaxReceivable:last 184
attr source sum(appLikedDataCountMaxReceivable)
scalar OPSHeraldNetwork.host[7] appTotalDataBytesMaxReceivable:last 19264139
attr source sum(appTotalDataBytesMaxReceivable)
scalar OPSHeraldNetwork.host[7] appNonLikedDataBytesMaxReceivable:last 14201816
attr source sum(appNonLikedDataBytesMaxReceivable)
scalar OPSHeraldNetwork.host[7] appLikedDataBytesMaxReceivable:last 5062323
attr source sum(appLikedDataBytesMaxReceivable)
scalar OPSHeraldNetwork.host[7] appTotalDataCountReceived:last 1156
attr source sum(appTotalDataCountReceived)
scalar OPSHeraldNetwork.host[7] appDuplicateDataCountReceived:last 877
attr source sum(appDuplicateDataCountReceived)
scalar OPSHeraldNetwork.host[7] appNonLikedDataCountReceived:last 214
attr source sum(appNonLikedDataCountReceived)
scalar OPSHeraldNetwork.host[7] appLikedDataCountReceived:last 65
attr source sum(appLikedDataCountReceived)
scalar OPSHeraldNetwork.host[7] appTotalDataBytesReceived:last 26534442
attr source sum(appTotalDataBytesReceived)
scalar OPSHeraldNetwork.host[7] appDuplicateDataBytesReceived:last 19398305
attr source sum(appDuplicateDataBytesReceived)
scalar OPSHeraldNetwork.host[7] appNonLikedDataBytesReceived:last 5358149
attr source sum(appNonLikedDataBytesReceived)
scalar OPSHeraldNetwork.host[7] appLikedDataBytesReceived:last 1777988
attr source sum(appLikedDataBytesReceived)
scalar OPSHeraldNetwork.host[8] linkSimpleNeighbourSize:mean 1.800462962963
attr source linkSimpleNeighSize
attr title "Simple Neighbour Size, mean"
scalar OPSHeraldNetwork.host[8] linkContactCount:last 237
attr source sum(linkContactCount)
attr title "Contact Count, last"
scalar OPSHeraldNetwork.host[8] linkAvgContactDuration:last 31.852320675105
attr source sum(linkContactDuration)/sum(linkContactDurationCount)
attr title "Average Contact Duration, last"
attr unit s
scalar OPSHeraldNetwork.host[8] linkAvgNeighbourSize:last 1.800462962963
attr source sum(linkNeighSize)/sum(linkNeighSizeCount)
attr title "Average Neighbour Size, last"
scalar OPSHeraldNetwork.host[8] fwdTotalBytesSent:last 39358240
attr source sum(fwdTotalBytesSent)
attr title "Total Sent, last"
attr unit byte
scalar OPSHeraldNetwork.host[8] fwdDPTableDataBytesSent:last -nan
attr source sum(fwdDPTableDataBytesSent)
attr title "DP Table Data Sent, last"
attr unit byte
scalar OPSHeraldNetwork.host[8] fwdDPTableRequestBytesSent:last -nan
attr source sum(fwdDPTableRequestBytesSent)
attr title "DP Table Requests Sent, last"
attr unit byte
scalar OPSHeraldNetwork.host[8] fwdDataReqBytesSent:last -nan
attr source sum(fwdDataReqBytesSent)
attr title "Data Requests Sent, last"
attr unit byte
scalar OPSHeraldNetwork.host[8] fwdSumVecBytesSent:last -nan
attr source sum(fwdSumVecBytesSent)
attr title "Summary Vectors Sent, last"
attr unit byte
scalar OPSHeraldNetwork.host[8] fwdDataBytesSent:last 39358240
attr source sum(fwdDataBytesSent)
attr title "Data Sent, last"
attr unit byte
scalar OPSHeraldNetwork.host[8] fwdCurrentCacheSizeBytes2:last 8428303
attr source fwdCurrentCacheSizeBytes2
attr title "Cache Size, last"
attr unit byte
scalar OPSHeraldNetwork.host[8] fwdCurrentCacheSizeBytes2:mean 5405115.1195942
attr source fwdCurrentCacheSizeBytes2
attr title "Cache Size, mean"
attr unit byte
scalar OPSHeraldNetwork.host[8] fwdCurrentCacheSizeBytesPeriodic:last 8428303
attr source fwdCurrentCacheSizeBytesPeriodic
attr title "Periodic Cache Size, last"
attr unit byte
scalar OPSHeraldNetwork.host[8] fwdCurrentCacheSizeBytesPeriodic:mean 4864266.0833333
attr source fwdCurrentCacheSizeBytesPeriodic
attr title "Periodic Cache Size, mean"
attr unit byte
scalar OPSHeraldNetwork.host[8] fwdCurrentCacheSizeBytesAvg:last 5405115.1195942
attr source sum(fwdCurrentCacheSizeBytes)/sum(fwdCurrentCacheSizeReportedCount)
attr title "Average Cache Size, last"
attr unit byte
scalar OPSHeraldNetwork.host[8] fwdCacheBytesUpdated:last 35011701
attr source sum(fwdCacheBytesUpdated)
attr title "Cache Updates, last"
attr unit byte
scalar OPSHeraldNetwork.host[8] fwdCacheBytesAdded:last 8428303
attr source sum(fwdCacheBytesAdded)
attr title "Cache Additions, last"
attr unit byte
scalar OPSHeraldNetwork.host[8] fwdCacheBytesRemoved:last -nan
attr source sum(fwdCacheBytesRemoved)
attr title "Cache Removals, last"
attr unit byte
scalar OPSHeraldNetwork.host[8] fwdAvgHopsTravelled:last 8.3140096618357
attr source sum(fwdHopsTravelled)/sum(fwdHopsTravelledCount)
attr title "Average Hops Travelled, last"
scalar OPSHeraldNetwork.host[8] fwdTotalBytesReceived:last 43195234
attr source sum(fwdTotalBytesReceived)
attr title "Total Received, last"
attr unit byte
scalar OPSHeraldNetwork.host[8] fwdDPTableDataBytesReceived:last -nan
attr source sum(fwdDPTableDataBytesReceived)
attr title "DP Table Data Received, last"
attr unit byte
scalar OPSHeraldNetwork.host[8] fwdDPTableRequestBytesReceived:last -nan
attr source sum(fwdDPTableRequestBytesReceived)
attr title "DP Table Requests Received, last"
attr unit byte
scalar OPSHeraldNetwork.host[8] fwdDataReqBytesReceived:last -nan
attr source sum(fwdDataReqBytesReceived)
attr title "Data Requests Received, last"
attr unit byte
scalar OPSHeraldNetwork.host[8] fwdSumVecBytesReceived:last -nan
attr source sum(fwdSumVecBytesReceived)
attr title "Summary Vectors Received, last"
attr unit byte
scalar OPSHeraldNetwork.host[8] fwdDataBytesReceived:last 43195234
attr source sum(fwdDataBytesReceived)
attr title "Data Received, last"
attr unit byte
scalar OPSHeraldNetwork.host[8] appTotalDataCountReceived2:last 318
attr source sum(appTotalDataCountReceived2)
scalar OPSHeraldNetwork.host[8] appTotalDataBytesReceived2:last 8136958
attr source sum(appTotalDataBytesReceived2)
scalar OPSHeraldNetwork.host[8] appTotalDataReceivedDelay2:mean 2761.9031436478
attr source appTotalDataReceivedDelay2
scalar OPSHeraldNetwork.host[8] appNonLikedDataReceivedDelay2:mean 2801.7703943333
attr source appNonLikedDataReceivedDelay2
scalar OPSHeraldNetwork.host[8] appLikedDataReceivedDelay2:mean 2639.23468
attr source appLikedDataReceivedDelay2
scalar OPSHeraldNetwork.host[8] appTotalDataAvgHopCount:last 4.7641509433962
attr source sum(appTotalDataHopsForAvgHopsComp)/sum(appTotalDataHopsCountForAvgHopsComp)
scalar OPSHeraldNetwork.host[8] appNonLikedDataAvgHopCount:last 4.8875
attr source sum(appNonLikedDataHopsForAvgHopsComp)/sum(appNonLikedDataHopsCountForAvgHopsComp)
scalar OPSHeraldNetwork.host[8] appLikedDataAvgHopCount:last 4.3846153846154
attr source sum(appLikedDataHopsForAvgHopsComp)/sum(appLikedDataHopsCountForAvgHopsComp)
scalar OPSHeraldNetwork.host[8] appTotalDataDeliveryRatio:last 0.43324250681199
attr source sum(appTotalDataCountReceivedForRatioComp)/sum(appTotalDataCountMaxReceivableForRatioComp)
scalar OPSHeraldNetwork.host[8] appNonLikedDataDeliveryRatio:last 0.43478260869565
attr source sum(appNonLikedDataCountReceivedForRatioComp)/sum(appNonLikedDataCountMaxReceivableForRatioComp)
scalar OPSHeraldNetwork.host[8] appLikedDataDeliveryRatio:last 0.42857142857143
attr source sum(appLikedDataCountReceivedForRatioComp)/sum(appLikedDataCountMaxReceivableForRatioComp)
scalar OPSHeraldNetwork.host[8] appTotalDataReceivedAvgDelay:last 2761.9031436478
attr source sum(appTotalDataReceivedDelay)/sum(appTotalDataCountReceivedForAvgDelayComp)
scalar OPSHeraldNetwork.host[8] appNonLikedDataReceivedAvgDelay:last 2801.7703943333
attr source sum(appNonLikedDataReceivedDelay)/sum(appNonLikedDataCountReceivedForAvgDelayComp)
scalar OPSHeraldNetwork.host[8] appLikedDataReceivedAvgDelay:last 2639.23468
attr source sum(appLikedDataReceivedDelay)/sum(appLikedDataCountReceivedForAvgDelayComp)
scalar OPSHeraldNetwork.host[8] appTotalDataCountMaxReceivable:last 734
attr source sum(appTotalDataCountMaxReceivable)
scalar OPSHeraldNetwork.host[8] appNonLikedDataCountMaxReceivable:last 552
attr source sum(appNonLikedDataCountMaxReceivable)
scalar OPSHeraldNetwork.host[8] appLikedDataCountMaxReceivable:last 182
attr source sum(appLikedDataCountMaxReceivable)
scalar OPSHeraldNetwork.host[8] appTotalDataBytesMaxReceivable:last 19217892
attr source sum(appTotalDataBytesMaxReceivable)
scalar OPSHeraldNetwork.host[8] appNonLikedDataBytesMaxReceivable:last 14254548
attr source sum(appNonLikedDataBytesMaxReceivable)
scalar OPSHeraldNetwork.host[8] appLikedDataBytesMaxReceivable:last 4963344
attr source sum(appLikedDataBytesMaxReceivable)
scalar OPSHeraldNetwork.host[8] appTotalDataCountReceived:last 1863
attr source sum(appTotalDataCountReceived)
scalar OPSHeraldNetwork.host[8] appDuplicateDataCountReceived:last 1545
attr source sum(appDuplicateDataCountReceived)
scalar OPSHeraldNetwork.host[8] appNonLikedDataCountReceived:last 240
attr source sum(appNonLikedDataCountReceived)
scalar OPSHeraldNetwork.host[8] appLikedDataCountReceived:last 78
attr source sum(appLikedDataCountReceived)
scalar OPSHeraldNetwork.host[8] appTotalDataBytesReceived:last 43148659
attr source sum(appTotalDataBytesReceived)
scalar OPSHeraldNetwork.host[8] appDuplicateDataBytesReceived:last 35011701
attr source sum(appDuplicateDataBytesReceived)
scalar OPSHeraldNetwork.host[8] appNonLikedDataBytesReceived:last 6201343
attr source sum(appNonLikedDataBytesReceived)
scalar OPSHeraldNetwork.host[8] appLikedDataBytesReceived:last 1935615
attr source sum(appLikedDataBytesReceived)
scalar OPSHeraldNetwork.host[9] linkSimpleNeighbourSize:mean 0.91342592592593
attr source linkSimpleNeighSize
attr title "Simple Neighbour Size, mean"
scalar OPSHeraldNetwork.host[9] linkContactCount:last 401
attr source sum(linkContactCount)
attr title "Contact Count, last"
scalar OPSHeraldNetwork.host[9] linkAvgContactDuration:last 15.072319201995
attr source sum(linkContactDuration)/sum(linkContactDurationCount)
attr title "Average Contact Duration, last"
attr unit s
scalar OPSHeraldNetwork.host[9] linkAvgNeighbourSize:last 0.91342592592593
attr source sum(linkNeighSize)/sum(linkNeighSizeCount)
attr title "Average Neighbour Size, last"
scalar OPSHeraldNetwork.host[9] fwdTotalBytesSent:last 33384236
attr source sum(fwdTotalBytesSent)
attr title "Total Sent, last"
attr unit byte
scalar OPSHeraldNetwork.host[9] fwdDPTableDataBytesSent:last -nan
attr source sum(fwdDPTableDataBytesSent)
attr title "DP Table Data Sent, last"
attr unit byte
scalar OPSHeraldNetwork.host[9] fwdDPTableRequestBytesSent:last -nan
attr source sum(fwdDPTableRequestBytesSent)
attr title "DP Table Requests Sent, last"
attr unit byte
scalar OPSHeraldNetwork.host[9] fwdDataReqBytesSent:last -nan
attr source sum(fwdDataReqBytesSent)
attr title "Data Requests Sent, last"
attr unit byte
scalar OPSHeraldNetwork.host[9] fwdSumVecBytesSent:last -nan
attr source sum(fwdSumVecBytesSent)
attr title "Summary Vectors Sent, last"
attr unit byte
scalar OPSHeraldNetwork.host[9] fwdDataBytesSent:last 33384236
attr source sum(fwdDataBytesSent)
attr title "Data Sent, last"
attr unit byte
scalar OPSHeraldNetwork.host[9] fwdCurrentCacheSizeBytes2:last 7339806
attr source fwdCurrentCacheSizeBytes2
attr title "Cache Size, last"
attr unit byte
scalar OPSHeraldNetwork.host[9] fwdCurrentCacheSizeBytes2:mean 4323623.2136832
attr source fwdCurrentCacheSizeBytes2
attr title "Cache Size, mean"
attr unit byte
scalar OPSHeraldNetwork.host[9] fwdCurrentCacheSizeBytesPeriodic:last 7339806
attr source fwdCurrentCacheSizeBytesPeriodic
attr title "Periodic Cache Size, last"
attr unit byte
scalar OPSHeraldNetwork.host[9] fwdCurrentCacheSizeBytesPeriodic:mean 3773806.2222222
attr source fwdCurrentCacheSizeBytesPeriodic
attr title "Periodic Cache Size, mean"
attr unit byte
scalar OPSHeraldNetwork.host[9] fwdCurrentCacheSizeBytesAvg:last 4323623.2136832
attr source sum(fwdCurrentCacheSizeBytes)/sum(fwdCurrentCacheSizeReportedCount)
attr title "Average Cache Size, last"
attr unit byte
scalar OPSHeraldNetwork.host[9] fwdCacheBytesUpdated:last 16692128
attr source sum(fwdCacheBytesUpdated)
attr title "Cache Updates, last"
attr unit byte
scalar OPSHeraldNetwork.host[9] fwdCacheBytesAdded:last 7339806
attr source sum(fwdCacheBytesAdded)
attr title "Cache Additions, last"
attr unit byte
scalar OPSHeraldNetwork.host[9] fwdCacheBytesRemoved:last -nan
attr source sum(fwdCacheBytesRemoved)
attr title "Cache Removals, last"
attr unit byte
scalar OPSHeraldNetwork.host[9] fwdAvgHopsTravelled:last 8.3920454545455
attr source sum(fwdHopsTravelled)/sum(fwdHopsTravelledCount)
attr title "Average Hops Travelled, last"
scalar OPSHeraldNetwork.host[9] fwdTotalBytesReceived:last 23765600
attr source sum(fwdTotalBytesReceived)
attr title "Total Received, last"
attr unit byte
scalar OPSHeraldNetwork.host[9] fwdDPTableDataBytesReceived:last -nan
attr source sum(fwdDPTableDataBytesReceived)
attr title "DP Table Data Received, last"
attr unit byte
scalar OPSHeraldNetwork.host[9] fwdDPTableRequestBytesReceived:last -nan
attr source sum(fwdDPTableRequestBytesReceived)
attr title "DP Table Requests Received, last"
attr unit byte
scalar OPSHeraldNetwork.host[9] fwdDataReqBytesReceived:last -nan
attr source sum(fwdDataReqBytesReceived)
attr title "Data Requests Received, last"
attr unit byte
scalar OPSHeraldNetwork.host[9] fwdSumVecBytesReceived:last -nan
attr source sum(fwdSumVecBytesReceived)
attr title "Summary Vectors Received, last"
attr unit byte
scalar OPSHeraldNetwork.host[9] fwdDataBytesReceived:last 23765600
attr source sum(fwdDataBytesReceived)
attr title "Data Received, last"
attr unit byte
scalar OPSHeraldNetwork.host[9] appTotalDataCountReceived2:last 277
attr source sum(appTotalDataCountReceived2)
scalar OPSHeraldNetwork.host[9] appTotalDataBytesReceived2:last 7047072
attr source sum(appTotalDataBytesReceived2)
scalar OPSHeraldNetwork.host[9] appTotalDataReceivedDelay2:mean 3603.8374524188
attr source appTotalDataReceivedDelay2
scalar OPSHeraldNetwork.host[9] appNonLikedDataReceivedDelay2:mean 3570.4329041148
attr source appNonLikedDataReceivedDelay2
scalar OPSHeraldNetwork.host[9] appLikedDataReceivedDelay2:mean 3706.5073141176
attr source appLikedDataReceivedDelay2
scalar OPSHeraldNetwork.host[9] appTotalDataAvgHopCount:last 5.6750902527076
attr source sum(appTotalDataHopsForAvgHopsComp)/sum(appTotalDataHopsCountForAvgHopsComp)
scalar OPSHeraldNetwork.host[9] appNonLikedDataAvgHopCount:last 5.755980861244
attr source sum(appNonLikedDataHopsForAvgHopsComp)/sum(appNonLikedDataHopsCountForAvgHopsComp)
scalar OPSHeraldNetwork.host[9] appLikedDataAvgHopCount:last 5.4264705882353
attr source sum(appLikedDataHopsForAvgHopsComp)/sum(appLikedDataHopsCountForAvgHopsComp)
scalar OPSHeraldNetwork.host[9] appTotalDataDeliveryRatio:last 0.37789904502046
attr source sum(appTotalDataCountReceivedForRatioComp)/sum(appTotalDataCountMaxReceivableForRatioComp)
scalar OPSHeraldNetwork.host[9] appNonLikedDataDeliveryRatio:last 0.38069216757741
attr source sum(appNonLikedDataCountReceivedForRatioComp)/sum(appNonLikedDataCountMaxReceivableForRatioComp)
scalar OPSHeraldNetwork.host[9] appLikedDataDeliveryRatio:last 0.3695652173913
attr source sum(appLikedDataCountReceivedForRatioComp)/sum(appLikedDataCountMaxReceivableForRatioComp)
scalar OPSHeraldNetwork.host[9] appTotalDataReceivedAvgDelay:last 3603.8374524188
attr source sum(appTotalDataReceivedDelay)/sum(appTotalDataCountReceivedForAvgDelayComp)
scalar OPSHeraldNetwork.host[9] appNonLikedDataReceivedAvgDelay:last 3570.4329041148
attr source sum(appNonLikedDataReceivedDelay)/sum(appNonLikedDataCountReceivedForAvgDelayComp)
scalar OPSHeraldNetwork.host[9] appLikedDataReceivedAvgDelay:last 3706.5073141176
attr source sum(appLikedDataReceivedDelay)/sum(appLikedDataCountReceivedForAvgDelayComp)
scalar OPSHeraldNetwork.host[9] appTotalDataCountMaxReceivable:last 733
attr source sum(appTotalDataCountMaxReceivable)
scalar OPSHeraldNetwork.host[9] appNonLikedDataCountMaxReceivable:last 549
attr source sum(appNonLikedDataCountMaxReceivable)
scalar OPSHeraldNetwork.host[9] appLikedDataCountMaxReceivable:last 184
attr source sum(appLikedDataCountMaxReceivable)
scalar OPSHeraldNetwork.host[9] appTotalDataBytesMaxReceivable:last 19216503
attr source sum(appTotalDataBytesMaxReceivable)
scalar OPSHeraldNetwork.host[9] appNonLikedDataBytesMaxReceivable:last 14154882
attr source sum(appNonLikedDataBytesMaxReceivable)
scalar OPSHeraldNetwork.host[9] appLikedDataBytesMaxReceivable:last 5061621
attr source sum(appLikedDataBytesMaxReceivable)
scalar OPSHeraldNetwork.host[9] appTotalDataCountReceived:last 1056
attr source sum(appTotalDataCountReceived)
scalar OPSHeraldNetwork.host[9] appDuplicateDataCountReceived:last 779
attr source sum(appDuplicateDataCountReceived)
scalar OPSHeraldNetwork.host[9] appNonLikedDataCountReceived:last 209
attr source sum(appNonLikedDataCountReceived)
scalar OPSHeraldNetwork.host[9] appLikedDataCountReceived:last 68
attr source sum(appLikedDataCountReceived)
scalar OPSHeraldNetwork.host[9] appTotalDataBytesReceived:last 23739200
attr source sum(appTotalDataBytesReceived)
[...]
attr unit byte
scalar OPSHeraldNetwork.host[60] fwdDPTableRequestBytesReceived:last -nan
attr source sum(fwdDPTableRequestBytesReceived)
attr title "DP Table Requests Received, last"
attr unit byte
scalar OPSHeraldNetwork.host[60] fwdDataReqBytesReceived:last -nan
attr source sum(fwdDataReqBytesReceived)
attr title "Data Requests Received, last"
attr unit byte
scalar OPSHeraldNetwork.host[60] fwdSumVecBytesReceived:last -nan
attr source sum(fwdSumVecBytesReceived)
attr title "Summary Vectors Received, last"
attr unit byte
scalar OPSHeraldNetwork.host[60] fwdDataBytesReceived:last 21786709
attr source sum(fwdDataBytesReceived)
attr title "Data Received, last"
attr unit byte
scalar OPSHeraldNetwork.host[60] appTotalDataCountReceived2:last 274
attr source sum(appTotalDataCountReceived2)
scalar OPSHeraldNetwork.host[60] appTotalDataBytesReceived2:last 6982470
attr source sum(appTotalDataBytesReceived2)
scalar OPSHeraldNetwork.host[60] appTotalDataReceivedDelay2:mean 3549.8105705109
attr source appTotalDataReceivedDelay2
scalar OPSHeraldNetwork.host[60] appNonLikedDataReceivedDelay2:mean 3608.1325603791
attr source appNonLikedDataReceivedDelay2
scalar OPSHeraldNetwork.host[60] appLikedDataReceivedDelay2:mean 3354.478191746
attr source appLikedDataReceivedDelay2
scalar OPSHeraldNetwork.host[60] appTotalDataAvgHopCount:last 6.0583941605839
attr source sum(appTotalDataHopsForAvgHopsComp)/sum(appTotalDataHopsCountForAvgHopsComp)
scalar OPSHeraldNetwork.host[60] appNonLikedDataAvgHopCount:last 6.1279620853081
attr source sum(appNonLikedDataHopsForAvgHopsComp)/sum(appNonLikedDataHopsCountForAvgHopsComp)
scalar OPSHeraldNetwork.host[60] appLikedDataAvgHopCount:last 5.8253968253968
attr source sum(appLikedDataHopsForAvgHopsComp)/sum(appLikedDataHopsCountForAvgHopsComp)
scalar OPSHeraldNetwork.host[60] appTotalDataDeliveryRatio:last 0.3732970027248
attr source sum(appTotalDataCountReceivedForRatioComp)/sum(appTotalDataCountMaxReceivableForRatioComp)
scalar OPSHeraldNetwork.host[60] appNonLikedDataDeliveryRatio:last 0.38018018018018
attr source sum(appNonLikedDataCountReceivedForRatioComp)/sum(appNonLikedDataCountMaxReceivableForRatioComp)
scalar OPSHeraldNetwork.host[60] appLikedDataDeliveryRatio:last 0.35195530726257
attr source sum(appLikedDataCountReceivedForRatioComp)/sum(appLikedDataCountMaxReceivableForRatioComp)
scalar OPSHeraldNetwork.host[60] appTotalDataReceivedAvgDelay:last 3549.8105705109
attr source sum(appTotalDataReceivedDelay)/sum(appTotalDataCountReceivedForAvgDelayComp)
scalar OPSHeraldNetwork.host[60] appNonLikedDataReceivedAvgDelay:last 3608.1325603791
attr source sum(appNonLikedDataReceivedDelay)/sum(appNonLikedDataCountReceivedForAvgDelayComp)
scalar OPSHeraldNetwork.host[60] appLikedDataReceivedAvgDelay:last 3354.478191746
attr source sum(appLikedDataReceivedDelay)/sum(appLikedDataCountReceivedForAvgDelayComp)
scalar OPSHeraldNetwork.host[60] appTotalDataCountMaxReceivable:last 734
attr source sum(appTotalDataCountMaxReceivable)
scalar OPSHeraldNetwork.host[60] appNonLikedDataCountMaxReceivable:last 555
attr source sum(appNonLikedDataCountMaxReceivable)
scalar OPSHeraldNetwork.host[60] appLikedDataCountMaxReceivable:last 179
attr source sum(appLikedDataCountMaxReceivable)
scalar OPSHeraldNetwork.host[60] appTotalDataBytesMaxReceivable:last 19236114
attr source sum(appTotalDataBytesMaxReceivable)
scalar OPSHeraldNetwork.host[60] appNonLikedDataBytesMaxReceivable:last 14276104
attr source sum(appNonLikedDataBytesMaxReceivable)
scalar OPSHeraldNetwork.host[60] appLikedDataBytesMaxReceivable:last 4960010
attr source sum(appLikedDataBytesMaxReceivable)
scalar OPSHeraldNetwork.host[60] appTotalDataCountReceived:last 949
attr source sum(appTotalDataCountReceived)
scalar OPSHeraldNetwork.host[60] appDuplicateDataCountReceived:last 675
attr source sum(appDuplicateDataCountReceived)
scalar OPSHeraldNetwork.host[60] appNonLikedDataCountReceived:last 211
attr source sum(appNonLikedDataCountReceived)
scalar OPSHeraldNetwork.host[60] appLikedDataCountReceived:last 63
attr source sum(appLikedDataCountReceived)
scalar OPSHeraldNetwork.host[60] appTotalDataBytesReceived:last 21762984
attr source sum(appTotalDataBytesReceived)
scalar OPSHeraldNetwork.host[60] appDuplicateDataBytesReceived:last 14780514
attr source sum(appDuplicateDataBytesReceived)
scalar OPSHeraldNetwork.host[60] appNonLikedDataBytesReceived:last 5279727
attr source sum(appNonLikedDataBytesReceived)
scalar OPSHeraldNetwork.host[60] appLikedDataBytesReceived:last 1702743
attr source sum(appLikedDataBytesReceived)
scalar OPSHeraldNetwork.host[61] linkSimpleNeighbourSize:mean 0.78481481481481
attr source linkSimpleNeighSize
attr title "Simple Neighbour Size, mean"
scalar OPSHeraldNetwork.host[61] linkContactCount:last 364
attr source sum(linkContactCount)
attr title "Contact Count, last"
scalar OPSHeraldNetwork.host[61] linkAvgContactDuration:last 14.425824175824
attr source sum(linkContactDuration)/sum(linkContactDurationCount)
attr title "Average Contact Duration, last"
attr unit s
scalar OPSHeraldNetwork.host[61] linkAvgNeighbourSize:last 0.78481481481481
attr source sum(linkNeighSize)/sum(linkNeighSizeCount)
attr title "Average Neighbour Size, last"
scalar OPSHeraldNetwork.host[61] fwdTotalBytesSent:last 32195722
attr source sum(fwdTotalBytesSent)
attr title "Total Sent, last"
attr unit byte
scalar OPSHeraldNetwork.host[61] fwdDPTableDataBytesSent:last -nan
attr source sum(fwdDPTableDataBytesSent)
attr title "DP Table Data Sent, last"
attr unit byte
scalar OPSHeraldNetwork.host[61] fwdDPTableRequestBytesSent:last -nan
attr source sum(fwdDPTableRequestBytesSent)
attr title "DP Table Requests Sent, last"
attr unit byte
scalar OPSHeraldNetwork.host[61] fwdDataReqBytesSent:last -nan
attr source sum(fwdDataReqBytesSent)
attr title "Data Requests Sent, last"
attr unit byte
scalar OPSHeraldNetwork.host[61] fwdSumVecBytesSent:last -nan
attr source sum(fwdSumVecBytesSent)
attr title "Summary Vectors Sent, last"
attr unit byte
scalar OPSHeraldNetwork.host[61] fwdDataBytesSent:last 32195722
attr source sum(fwdDataBytesSent)
attr title "Data Sent, last"
attr unit byte
scalar OPSHeraldNetwork.host[61] fwdCurrentCacheSizeBytes2:last 7230657
attr source fwdCurrentCacheSizeBytes2
attr title "Cache Size, last"
attr unit byte
scalar OPSHeraldNetwork.host[61] fwdCurrentCacheSizeBytes2:mean 4385542.4691892
attr source fwdCurrentCacheSizeBytes2
attr title "Cache Size, mean"
attr unit byte
scalar OPSHeraldNetwork.host[61] fwdCurrentCacheSizeBytesPeriodic:last 7230657
attr source fwdCurrentCacheSizeBytesPeriodic
attr title "Periodic Cache Size, last"
attr unit byte
scalar OPSHeraldNetwork.host[61] fwdCurrentCacheSizeBytesPeriodic:mean 3925209.9814815
attr source fwdCurrentCacheSizeBytesPeriodic
attr title "Periodic Cache Size, mean"
attr unit byte
scalar OPSHeraldNetwork.host[61] fwdCurrentCacheSizeBytesAvg:last 4385542.4691892
attr source sum(fwdCurrentCacheSizeBytes)/sum(fwdCurrentCacheSizeReportedCount)
attr title "Average Cache Size, last"
attr unit byte
scalar OPSHeraldNetwork.host[61] fwdCacheBytesUpdated:last 14760846
attr source sum(fwdCacheBytesUpdated)
attr title "Cache Updates, last"
attr unit byte
scalar OPSHeraldNetwork.host[61] fwdCacheBytesAdded:last 7230657
attr source sum(fwdCacheBytesAdded)
attr title "Cache Additions, last"
attr unit byte
scalar OPSHeraldNetwork.host[61] fwdCacheBytesRemoved:last -nan
attr source sum(fwdCacheBytesRemoved)
attr title "Cache Removals, last"
attr unit byte
scalar OPSHeraldNetwork.host[61] fwdAvgHopsTravelled:last 8.2874316939891
attr source sum(fwdHopsTravelled)/sum(fwdHopsTravelledCount)
attr title "Average Hops Travelled, last"
scalar OPSHeraldNetwork.host[61] fwdTotalBytesReceived:last 21679334
attr source sum(fwdTotalBytesReceived)
attr title "Total Received, last"
attr unit byte
scalar OPSHeraldNetwork.host[61] fwdDPTableDataBytesReceived:last -nan
attr source sum(fwdDPTableDataBytesReceived)
attr title "DP Table Data Received, last"
attr unit byte
scalar OPSHeraldNetwork.host[61] fwdDPTableRequestBytesReceived:last -nan
attr source sum(fwdDPTableRequestBytesReceived)
attr title "DP Table Requests Received, last"
attr unit byte
scalar OPSHeraldNetwork.host[61] fwdDataReqBytesReceived:last -nan
attr source sum(fwdDataReqBytesReceived)
attr title "Data Requests Received, last"
attr unit byte
scalar OPSHeraldNetwork.host[61] fwdSumVecBytesReceived:last -nan
attr source sum(fwdSumVecBytesReceived)
attr title "Summary Vectors Received, last"
attr unit byte
scalar OPSHeraldNetwork.host[61] fwdDataBytesReceived:last 21679334
attr source sum(fwdDataBytesReceived)
attr title "Data Received, last"
attr unit byte
scalar OPSHeraldNetwork.host[61] appTotalDataCountReceived2:last 274
attr source sum(appTotalDataCountReceived2)
scalar OPSHeraldNetwork.host[61] appTotalDataBytesReceived2:last 6895613
attr source sum(appTotalDataBytesReceived2)
scalar OPSHeraldNetwork.host[61] appTotalDataReceivedDelay2:mean 3433.3472545985
attr source appTotalDataReceivedDelay2
scalar OPSHeraldNetwork.host[61] appNonLikedDataReceivedDelay2:mean 3475.5675720574
attr source appNonLikedDataReceivedDelay2
scalar OPSHeraldNetwork.host[61] appLikedDataReceivedDelay2:mean 3297.5926953846
attr source appLikedDataReceivedDelay2
scalar OPSHeraldNetwork.host[61] appTotalDataAvgHopCount:last 5.7335766423358
attr source sum(appTotalDataHopsForAvgHopsComp)/sum(appTotalDataHopsCountForAvgHopsComp)
scalar OPSHeraldNetwork.host[61] appNonLikedDataAvgHopCount:last 5.8516746411483
attr source sum(appNonLikedDataHopsForAvgHopsComp)/sum(appNonLikedDataHopsCountForAvgHopsComp)
scalar OPSHeraldNetwork.host[61] appLikedDataAvgHopCount:last 5.3538461538462
attr source sum(appLikedDataHopsForAvgHopsComp)/sum(appLikedDataHopsCountForAvgHopsComp)
scalar OPSHeraldNetwork.host[61] appTotalDataDeliveryRatio:last 0.3732970027248
attr source sum(appTotalDataCountReceivedForRatioComp)/sum(appTotalDataCountMaxReceivableForRatioComp)
scalar OPSHeraldNetwork.host[61] appNonLikedDataDeliveryRatio:last 0.37931034482759
attr source sum(appNonLikedDataCountReceivedForRatioComp)/sum(appNonLikedDataCountMaxReceivableForRatioComp)
scalar OPSHeraldNetwork.host[61] appLikedDataDeliveryRatio:last 0.3551912568306
attr source sum(appLikedDataCountReceivedForRatioComp)/sum(appLikedDataCountMaxReceivableForRatioComp)
scalar OPSHeraldNetwork.host[61] appTotalDataReceivedAvgDelay:last 3433.3472545985
attr source sum(appTotalDataReceivedDelay)/sum(appTotalDataCountReceivedForAvgDelayComp)
scalar OPSHeraldNetwork.host[61] appNonLikedDataReceivedAvgDelay:last 3475.5675720574
attr source sum(appNonLikedDataReceivedDelay)/sum(appNonLikedDataCountReceivedForAvgDelayComp)
scalar OPSHeraldNetwork.host[61] appLikedDataReceivedAvgDelay:last 3297.5926953846
attr source sum(appLikedDataReceivedDelay)/sum(appLikedDataCountReceivedForAvgDelayComp)
scalar OPSHeraldNetwork.host[61] appTotalDataCountMaxReceivable:last 734
attr source sum(appTotalDataCountMaxReceivable)
scalar OPSHeraldNetwork.host[61] appNonLikedDataCountMaxReceivable:last 551
attr source sum(appNonLikedDataCountMaxReceivable)
scalar OPSHeraldNetwork.host[61] appLikedDataCountMaxReceivable:last 183
attr source sum(appLikedDataCountMaxReceivable)
scalar OPSHeraldNetwork.host[61] appTotalDataBytesMaxReceivable:last 19174193
attr source sum(appTotalDataBytesMaxReceivable)
scalar OPSHeraldNetwork.host[61] appNonLikedDataBytesMaxReceivable:last 14173211
attr source sum(appNonLikedDataBytesMaxReceivable)
scalar OPSHeraldNetwork.host[61] appLikedDataBytesMaxReceivable:last 5000982
attr source sum(appLikedDataBytesMaxReceivable)
scalar OPSHeraldNetwork.host[61] appTotalDataCountReceived:last 915
attr source sum(appTotalDataCountReceived)
scalar OPSHeraldNetwork.host[61] appDuplicateDataCountReceived:last 641
attr source sum(appDuplicateDataCountReceived)
scalar OPSHeraldNetwork.host[61] appNonLikedDataCountReceived:last 209
attr source sum(appNonLikedDataCountReceived)
scalar OPSHeraldNetwork.host[61] appLikedDataCountReceived:last 65
attr source sum(appLikedDataCountReceived)
scalar OPSHeraldNetwork.host[61] appTotalDataBytesReceived:last 21656459
attr source sum(appTotalDataBytesReceived)
scalar OPSHeraldNetwork.host[61] appDuplicateDataBytesReceived:last 14760846
attr source sum(appDuplicateDataBytesReceived)
scalar OPSHeraldNetwork.host[61] appNonLikedDataBytesReceived:last 5272963
attr source sum(appNonLikedDataBytesReceived)
scalar OPSHeraldNetwork.host[61] appLikedDataBytesReceived:last 1622650
attr source sum(appLikedDataBytesReceived)
scalar OPSHeraldNetwork linkSimpleNeighbourSize:mean 1.2061917562724
attr source linkSimpleNeighSize
attr title "Simple Neighbour Size, mean"
scalar OPSHeraldNetwork linkContactCount:last 21153
attr source sum(linkContactCount)
attr title "Contact Count, last"
scalar OPSHeraldNetwork linkAvgContactDuration:last 18.591263650546
attr source sum(linkContactDuration)/sum(linkContactDurationCount)
attr title "Average Contact Duration, last"
attr unit s
scalar OPSHeraldNetwork linkAvgNeighbourSize:last 1.2061917562724
attr source sum(linkNeighSize)/sum(linkNeighSizeCount)
attr title "Average Neighbour Size, last"
scalar OPSHeraldNetwork fwdTotalBytesSent:last 2185141608
attr source sum(fwdTotalBytesSent)
attr title "Total Sent, last"
attr unit byte
scalar OPSHeraldNetwork fwdDPTableDataBytesSent:last -nan
attr source sum(fwdDPTableDataBytesSent)
attr title "DP Table Data Sent, last"
attr unit byte
scalar OPSHeraldNetwork fwdDPTableRequestBytesSent:last -nan
attr source sum(fwdDPTableRequestBytesSent)
attr title "DP Table Requests Sent, last"
attr unit byte
scalar OPSHeraldNetwork fwdDataReqBytesSent:last -nan
attr source sum(fwdDataReqBytesSent)
attr title "Data Requests Sent, last"
attr unit byte
scalar OPSHeraldNetwork fwdSumVecBytesSent:last -nan
attr source sum(fwdSumVecBytesSent)
attr title "Summary Vectors Sent, last"
attr unit byte
scalar OPSHeraldNetwork fwdDataBytesSent:last 2185141608
attr source sum(fwdDataBytesSent)
attr title "Data Sent, last"
attr unit byte
scalar OPSHeraldNetwork fwdCurrentCacheSizeBytesAvg2:last 4418639.0347666
attr source mean(fwdCurrentCacheSizeBytes2)
attr title "Average Cache Size, last"
attr unit byte
scalar OPSHeraldNetwork fwdCurrentCacheSizeBytesAvg2:mean 2551676.132316
attr source mean(fwdCurrentCacheSizeBytes2)
attr title "Average Cache Size, mean"
attr unit byte
scalar OPSHeraldNetwork fwdCurrentCacheSizeBytesPeriodicAvg:mean 4240365.5516726
attr source periodicAverageForAllNodes(fwdCurrentCacheSizeBytesPeriodic)
attr title "Periodic Average Cache Size, mean"
attr unit byte
scalar OPSHeraldNetwork fwdCurrentCacheSizeBytesAvg:last 4418639.0347666
attr source sum(fwdCurrentCacheSizeBytes)/sum(fwdCurrentCacheSizeReportedCount)
attr title "Average Cache Size, last"
attr unit byte
scalar OPSHeraldNetwork fwdCacheBytesUpdated:last 1235042777
attr source sum(fwdCacheBytesUpdated)
attr title "Cache Updates, last"
attr unit byte
scalar OPSHeraldNetwork fwdCacheBytesAdded:last 457582991
attr source sum(fwdCacheBytesAdded)
attr title "Cache Additions, last"
attr unit byte
scalar OPSHeraldNetwork fwdCacheBytesRemoved:last -nan
attr source sum(fwdCacheBytesRemoved)
attr title "Cache Removals, last"
attr unit byte
scalar OPSHeraldNetwork fwdAvgHopsTravelled:last 8.2447346827133
attr source sum(fwdHopsTravelled)/sum(fwdHopsTravelledCount)
attr title "Average Hops Travelled, last"
scalar OPSHeraldNetwork fwdTotalBytesReceived:last 1674944531
attr source sum(fwdTotalBytesReceived)
attr title "Total Received, last"
attr unit byte
scalar OPSHeraldNetwork fwdDPTableDataBytesReceived:last -nan
attr source sum(fwdDPTableDataBytesReceived)
attr title "DP Table Data Received, last"
attr unit byte
scalar OPSHeraldNetwork fwdDPTableRequestBytesReceived:last -nan
attr source sum(fwdDPTableRequestBytesReceived)
attr title "DP Table Requests Received, last"
attr unit byte
scalar OPSHeraldNetwork fwdDataReqBytesReceived:last -nan
attr source sum(fwdDataReqBytesReceived)
attr title "Data Requests Received, last"
attr unit byte
scalar OPSHeraldNetwork fwdSumVecBytesReceived:last -nan
attr source sum(fwdSumVecBytesReceived)
attr title "Summary Vectors Received, last"
attr unit byte
scalar OPSHeraldNetwork fwdDataBytesReceived:last 1674944531
attr source sum(fwdDataBytesReceived)
attr title "Data Received, last"
attr unit byte
scalar OPSHeraldNetwork appTotalDataCountReceived2:last 17269
attr source sum(appTotalDataCountReceived2)
scalar OPSHeraldNetwork appTotalDataBytesReceived2:last 438073754
attr source sum(appTotalDataBytesReceived2)
scalar OPSHeraldNetwork appTotalDataReceivedDelay2:mean 3082.8492467798
attr source appTotalDataReceivedDelay2
scalar OPSHeraldNetwork appNonLikedDataReceivedDelay2:mean 3094.728124352
attr source appNonLikedDataReceivedDelay2
scalar OPSHeraldNetwork appLikedDataReceivedDelay2:mean 3046.8214599906
attr source appLikedDataReceivedDelay2
scalar OPSHeraldNetwork appTotalDataAvgHopCount:last 5.1767907811686
attr source sum(appTotalDataHopsForAvgHopsComp)/sum(appTotalDataHopsCountForAvgHopsComp)
scalar OPSHeraldNetwork appNonLikedDataAvgHopCount:last 5.2447062447062
attr source sum(appNonLikedDataHopsForAvgHopsComp)/sum(appNonLikedDataHopsCountForAvgHopsComp)
scalar OPSHeraldNetwork appLikedDataAvgHopCount:last 4.9708080336291
attr source sum(appLikedDataHopsForAvgHopsComp)/sum(appLikedDataHopsCountForAvgHopsComp)
scalar OPSHeraldNetwork appTotalDataDeliveryRatio:last 0.38050854926846
attr source sum(appTotalDataCountReceivedForRatioComp)/sum(appTotalDataCountMaxReceivableForRatioComp)
scalar OPSHeraldNetwork appNonLikedDataDeliveryRatio:last 0.38086160884483
attr source sum(appNonLikedDataCountReceivedForRatioComp)/sum(appNonLikedDataCountMaxReceivableForRatioComp)
scalar OPSHeraldNetwork appLikedDataDeliveryRatio:last 0.37944173681879
attr source sum(appLikedDataCountReceivedForRatioComp)/sum(appLikedDataCountMaxReceivableForRatioComp)
scalar OPSHeraldNetwork appTotalDataReceivedAvgDelay:last 3082.8492467798
attr source sum(appTotalDataReceivedDelay)/sum(appTotalDataCountReceivedForAvgDelayComp)
scalar OPSHeraldNetwork appNonLikedDataReceivedAvgDelay:last 3094.728124352
attr source sum(appNonLikedDataReceivedDelay)/sum(appNonLikedDataCountReceivedForAvgDelayComp)
scalar OPSHeraldNetwork appLikedDataReceivedAvgDelay:last 3046.8214599906
attr source sum(appLikedDataReceivedDelay)/sum(appLikedDataCountReceivedForAvgDelayComp)
scalar OPSHeraldNetwork appTotalDataCountMaxReceivable:last 45384
attr source sum(appTotalDataCountMaxReceivable)
scalar OPSHeraldNetwork appNonLikedDataCountMaxReceivable:last 34099
attr source sum(appNonLikedDataCountMaxReceivable)
scalar OPSHeraldNetwork appLikedDataCountMaxReceivable:last 11285
attr source sum(appLikedDataCountMaxReceivable)
scalar OPSHeraldNetwork appTotalDataBytesMaxReceivable:last 1190063457
attr source sum(appTotalDataBytesMaxReceivable)
scalar OPSHeraldNetwork appNonLikedDataBytesMaxReceivable:last 880159118
attr source sum(appNonLikedDataBytesMaxReceivable)
scalar OPSHeraldNetwork appLikedDataBytesMaxReceivable:last 309904339
attr source sum(appLikedDataBytesMaxReceivable)
scalar OPSHeraldNetwork appTotalDataCountReceived:last 73120
attr source sum(appTotalDataCountReceived)
scalar OPSHeraldNetwork appDuplicateDataCountReceived:last 55851
attr source sum(appDuplicateDataCountReceived)
scalar OPSHeraldNetwork appNonLikedDataCountReceived:last 12987
attr source sum(appNonLikedDataCountReceived)
scalar OPSHeraldNetwork appLikedDataCountReceived:last 4282
attr source sum(appLikedDataCountReceived)
scalar OPSHeraldNetwork appTotalDataBytesReceived:last 1673116531
attr source sum(appTotalDataBytesReceived)
scalar OPSHeraldNetwork appDuplicateDataBytesReceived:last 1235042777
attr source sum(appDuplicateDataBytesReceived)
scalar OPSHeraldNetwork appNonLikedDataBytesReceived:last 323303170
attr source sum(appNonLikedDataBytesReceived)
scalar OPSHeraldNetwork appLikedDataBytesReceived:last 114770584
attr source sum(appLikedDataBytesReceived)

