version 2
run General-0-20210123-10:56:37-18566
attr configname General
attr datetime 20210123-10:56:37
attr experiment General
attr inifile omnetpp-herald-epidemic.ini
attr iterationvars ""
attr iterationvarsf ""
attr measurement ""
attr network OPSHeraldNetwork
attr processid 18566
attr repetition 0
attr replication #0
attr resultdir results/
attr runnumber 0
attr seedset 0
param **.numNodes 98
param **.app.dataGenerationInterval 1s
param **.app.dataSizeInBytes 10000
param **.app.popularityAssignmentPercentage 25
param **.app.usedRNG 1
param **.app.mode 0
param **.forwardingLayer "\"KRRSLayer\""
param **.forwarding.maximumCacheSize 100000000byte
param **.forwarding.usedRNG 3
param **.forwarding.broadcastRRS false
param **.forwarding.sendOnNeighReportingFrequency false
param **.forwarding.sendFrequencyWhenNotOnNeighFrequency 4s
param **.link.wirelessRange 30m
param **.link.neighbourScanInterval 1s
param **.link.bandwidthBitRate 100000bps
param **.link.wirelessHeaderSize 16byte
param **.link.usedRNG 4
param **.mobilityType "\"BonnMotionMobility\""
param **.mobility.traceFile "\"all_traces.gpx.movements\""
param **.mobility.nodeId -1

scalar OPSHeraldNetwork.host[0] linkSimpleNeighbourSize:mean 1.334388
attr source linkSimpleNeighSize
attr title "Simple Neighbour Size, mean"
scalar OPSHeraldNetwork.host[0] linkContactCount:last 252
attr source sum(linkContactCount)
attr title "Contact Count, last"
scalar OPSHeraldNetwork.host[0] linkAvgContactDuration:last 732.60714285714
attr source sum(linkContactDuration)/sum(linkContactDurationCount)
attr title "Average Contact Duration, last"
attr unit s
scalar OPSHeraldNetwork.host[0] linkAvgNeighbourSize:last 1.334388
attr source sum(linkNeighSize)/sum(linkNeighSizeCount)
attr title "Average Neighbour Size, last"
scalar OPSHeraldNetwork.host[0] fwdTotalBytesSent:last 931132670
attr source sum(fwdTotalBytesSent)
attr title "Total Sent, last"
attr unit byte
scalar OPSHeraldNetwork.host[0] fwdDPTableDataBytesSent:last -nan
attr source sum(fwdDPTableDataBytesSent)
attr title "DP Table Data Sent, last"
attr unit byte
scalar OPSHeraldNetwork.host[0] fwdDPTableRequestBytesSent:last -nan
attr source sum(fwdDPTableRequestBytesSent)
attr title "DP Table Requests Sent, last"
attr unit byte
scalar OPSHeraldNetwork.host[0] fwdDataReqBytesSent:last -nan
attr source sum(fwdDataReqBytesSent)
attr title "Data Requests Sent, last"
attr unit byte
scalar OPSHeraldNetwork.host[0] fwdSumVecBytesSent:last -nan
attr source sum(fwdSumVecBytesSent)
attr title "Summary Vectors Sent, last"
attr unit byte
scalar OPSHeraldNetwork.host[0] fwdDataBytesSent:last 931132670
attr source sum(fwdDataBytesSent)
attr title "Data Sent, last"
attr unit byte
scalar OPSHeraldNetwork.host[0] fwdCurrentCacheSizeBytes2:last 50006539
attr source fwdCurrentCacheSizeBytes2
attr title "Cache Size, last"
attr unit byte
scalar OPSHeraldNetwork.host[0] fwdCurrentCacheSizeBytes2:mean 19325011.507787
attr source fwdCurrentCacheSizeBytes2
attr title "Cache Size, mean"
attr unit byte
scalar OPSHeraldNetwork.host[0] fwdCurrentCacheSizeBytesPeriodic:last 50006539
attr source fwdCurrentCacheSizeBytesPeriodic
attr title "Periodic Cache Size, last"
attr unit byte
scalar OPSHeraldNetwork.host[0] fwdCurrentCacheSizeBytesPeriodic:mean 22437109.9536
attr source fwdCurrentCacheSizeBytesPeriodic
attr title "Periodic Cache Size, mean"
attr unit byte
scalar OPSHeraldNetwork.host[0] fwdCurrentCacheSizeBytesAvg:last 19325011.507787
attr source sum(fwdCurrentCacheSizeBytes)/sum(fwdCurrentCacheSizeReportedCount)
attr title "Average Cache Size, last"
attr unit byte
scalar OPSHeraldNetwork.host[0] fwdCacheBytesUpdated:last 944995284
attr source sum(fwdCacheBytesUpdated)
attr title "Cache Updates, last"
attr unit byte
scalar OPSHeraldNetwork.host[0] fwdCacheBytesAdded:last 50006539
attr source sum(fwdCacheBytesAdded)
attr title "Cache Additions, last"
attr unit byte
scalar OPSHeraldNetwork.host[0] fwdCacheBytesRemoved:last -nan
attr source sum(fwdCacheBytesRemoved)
attr title "Cache Removals, last"
attr unit byte
scalar OPSHeraldNetwork.host[0] fwdAvgHopsTravelled:last 31.099048132184
attr source sum(fwdHopsTravelled)/sum(fwdHopsTravelledCount)
attr title "Average Hops Travelled, last"
scalar OPSHeraldNetwork.host[0] fwdTotalBytesReceived:last 995686392
attr source sum(fwdTotalBytesReceived)
attr title "Total Received, last"
attr unit byte
scalar OPSHeraldNetwork.host[0] fwdDPTableDataBytesReceived:last -nan
attr source sum(fwdDPTableDataBytesReceived)
attr title "DP Table Data Received, last"
attr unit byte
scalar OPSHeraldNetwork.host[0] fwdDPTableRequestBytesReceived:last -nan
attr source sum(fwdDPTableRequestBytesReceived)
attr title "DP Table Requests Received, last"
attr unit byte
scalar OPSHeraldNetwork.host[0] fwdDataReqBytesReceived:last -nan
attr source sum(fwdDataReqBytesReceived)
attr title "Data Requests Received, last"
attr unit byte
scalar OPSHeraldNetwork.host[0] fwdSumVecBytesReceived:last -nan
attr source sum(fwdSumVecBytesReceived)
attr title "Summary Vectors Received, last"
attr unit byte
scalar OPSHeraldNetwork.host[0] fwdDataBytesReceived:last 995686392
attr source sum(fwdDataBytesReceived)
attr title "Data Received, last"
attr unit byte
scalar OPSHeraldNetwork.host[0] appTotalDataCountReceived2:last 1963
attr source sum(appTotalDataCountReceived2)
scalar OPSHeraldNetwork.host[0] appTotalDataBytesReceived2:last 49577508
attr source sum(appTotalDataBytesReceived2)
scalar OPSHeraldNetwork.host[0] appTotalDataReceivedDelay2:mean 58035.394976709
attr source appTotalDataReceivedDelay2
scalar OPSHeraldNetwork.host[0] appNonLikedDataReceivedDelay2:mean 57208.702551956
attr source appNonLikedDataReceivedDelay2
scalar OPSHeraldNetwork.host[0] appLikedDataReceivedDelay2:mean 60513.788559674
attr source appLikedDataReceivedDelay2
scalar OPSHeraldNetwork.host[0] appTotalDataAvgHopCount:last 12.533367294957
attr source sum(appTotalDataHopsForAvgHopsComp)/sum(appTotalDataHopsCountForAvgHopsComp)
scalar OPSHeraldNetwork.host[0] appNonLikedDataAvgHopCount:last 12.197010869565
attr source sum(appNonLikedDataHopsForAvgHopsComp)/sum(appNonLikedDataHopsCountForAvgHopsComp)
scalar OPSHeraldNetwork.host[0] appLikedDataAvgHopCount:last 13.541751527495
attr source sum(appLikedDataHopsForAvgHopsComp)/sum(appLikedDataHopsCountForAvgHopsComp)
scalar OPSHeraldNetwork.host[0] appTotalDataDeliveryRatio:last 0.51387434554974
attr source sum(appTotalDataCountReceivedForRatioComp)/sum(appTotalDataCountMaxReceivableForRatioComp)
scalar OPSHeraldNetwork.host[0] appNonLikedDataDeliveryRatio:last 0.51558669001751
attr source sum(appNonLikedDataCountReceivedForRatioComp)/sum(appNonLikedDataCountMaxReceivableForRatioComp)
scalar OPSHeraldNetwork.host[0] appLikedDataDeliveryRatio:last 0.50880829015544
attr source sum(appLikedDataCountReceivedForRatioComp)/sum(appLikedDataCountMaxReceivableForRatioComp)
scalar OPSHeraldNetwork.host[0] appTotalDataReceivedAvgDelay:last 58035.394976709
attr source sum(appTotalDataReceivedDelay)/sum(appTotalDataCountReceivedForAvgDelayComp)
scalar OPSHeraldNetwork.host[0] appNonLikedDataReceivedAvgDelay:last 57208.702551956
attr source sum(appNonLikedDataReceivedDelay)/sum(appNonLikedDataCountReceivedForAvgDelayComp)
scalar OPSHeraldNetwork.host[0] appLikedDataReceivedAvgDelay:last 60513.788559674
attr source sum(appLikedDataReceivedDelay)/sum(appLikedDataCountReceivedForAvgDelayComp)
scalar OPSHeraldNetwork.host[0] appTotalDataCountMaxReceivable:last 3820
attr source sum(appTotalDataCountMaxReceivable)
scalar OPSHeraldNetwork.host[0] appNonLikedDataCountMaxReceivable:last 2855
attr source sum(appNonLikedDataCountMaxReceivable)
scalar OPSHeraldNetwork.host[0] appLikedDataCountMaxReceivable:last 965
attr source sum(appLikedDataCountMaxReceivable)
scalar OPSHeraldNetwork.host[0] appTotalDataBytesMaxReceivable:last 95439904
attr source sum(appTotalDataBytesMaxReceivable)
scalar OPSHeraldNetwork.host[0] appNonLikedDataBytesMaxReceivable:last 71057583
attr source sum(appNonLikedDataBytesMaxReceivable)
scalar OPSHeraldNetwork.host[0] appLikedDataBytesMaxReceivable:last 24382321
attr source sum(appLikedDataBytesMaxReceivable)
scalar OPSHeraldNetwork.host[0] appTotalDataCountReceived:last 44544
attr source sum(appTotalDataCountReceived)
scalar OPSHeraldNetwork.host[0] appDuplicateDataCountReceived:last 42581
attr source sum(appDuplicateDataCountReceived)
scalar OPSHeraldNetwork.host[0] appNonLikedDataCountReceived:last 1472
attr source sum(appNonLikedDataCountReceived)
scalar OPSHeraldNetwork.host[0] appLikedDataCountReceived:last 491
attr source sum(appLikedDataCountReceived)
scalar OPSHeraldNetwork.host[0] appTotalDataBytesReceived:last 994572792
attr source sum(appTotalDataBytesReceived)
scalar OPSHeraldNetwork.host[0] appDuplicateDataBytesReceived:last 944995284
attr source sum(appDuplicateDataBytesReceived)
scalar OPSHeraldNetwork.host[0] appNonLikedDataBytesReceived:last 36794104
attr source sum(appNonLikedDataBytesReceived)
scalar OPSHeraldNetwork.host[0] appLikedDataBytesReceived:last 12783404
attr source sum(appLikedDataBytesReceived)
scalar OPSHeraldNetwork.host[1] linkSimpleNeighbourSize:mean 0.965116
attr source linkSimpleNeighSize
attr title "Simple Neighbour Size, mean"
scalar OPSHeraldNetwork.host[1] linkContactCount:last 293
attr source sum(linkContactCount)
attr title "Contact Count, last"
scalar OPSHeraldNetwork.host[1] linkAvgContactDuration:last 553.09556313993
attr source sum(linkContactDuration)/sum(linkContactDurationCount)
attr title "Average Contact Duration, last"
attr unit s
scalar OPSHeraldNetwork.host[1] linkAvgNeighbourSize:last 0.965116
attr source sum(linkNeighSize)/sum(linkNeighSizeCount)
attr title "Average Neighbour Size, last"
scalar OPSHeraldNetwork.host[1] fwdTotalBytesSent:last 852305882
attr source sum(fwdTotalBytesSent)
attr title "Total Sent, last"
attr unit byte
scalar OPSHeraldNetwork.host[1] fwdDPTableDataBytesSent:last -nan
attr source sum(fwdDPTableDataBytesSent)
attr title "DP Table Data Sent, last"
attr unit byte
scalar OPSHeraldNetwork.host[1] fwdDPTableRequestBytesSent:last -nan
attr source sum(fwdDPTableRequestBytesSent)
attr title "DP Table Requests Sent, last"
attr unit byte
scalar OPSHeraldNetwork.host[1] fwdDataReqBytesSent:last -nan
attr source sum(fwdDataReqBytesSent)
attr title "Data Requests Sent, last"
attr unit byte
scalar OPSHeraldNetwork.host[1] fwdSumVecBytesSent:last -nan
attr source sum(fwdSumVecBytesSent)
attr title "Summary Vectors Sent, last"
attr unit byte
scalar OPSHeraldNetwork.host[1] fwdDataBytesSent:last 852305882
attr source sum(fwdDataBytesSent)
attr title "Data Sent, last"
attr unit byte
scalar OPSHeraldNetwork.host[1] fwdCurrentCacheSizeBytes2:last 52830568
attr source fwdCurrentCacheSizeBytes2
attr title "Cache Size, last"
attr unit byte
scalar OPSHeraldNetwork.host[1] fwdCurrentCacheSizeBytes2:mean 26435978.60823
attr source fwdCurrentCacheSizeBytes2
attr title "Cache Size, mean"
attr unit byte
scalar OPSHeraldNetwork.host[1] fwdCurrentCacheSizeBytesPeriodic:last 52830568
attr source fwdCurrentCacheSizeBytesPeriodic
attr title "Periodic Cache Size, last"
attr unit byte
scalar OPSHeraldNetwork.host[1] fwdCurrentCacheSizeBytesPeriodic:mean 23514907.2156
attr source fwdCurrentCacheSizeBytesPeriodic
attr title "Periodic Cache Size, mean"
attr unit byte
scalar OPSHeraldNetwork.host[1] fwdCurrentCacheSizeBytesAvg:last 26435978.60823
attr source sum(fwdCurrentCacheSizeBytes)/sum(fwdCurrentCacheSizeReportedCount)
attr title "Average Cache Size, last"
attr unit byte
scalar OPSHeraldNetwork.host[1] fwdCacheBytesUpdated:last 530575347
attr source sum(fwdCacheBytesUpdated)
attr title "Cache Updates, last"
attr unit byte
scalar OPSHeraldNetwork.host[1] fwdCacheBytesAdded:last 52830568
attr source sum(fwdCacheBytesAdded)
attr title "Cache Additions, last"
attr unit byte
scalar OPSHeraldNetwork.host[1] fwdCacheBytesRemoved:last -nan
attr source sum(fwdCacheBytesRemoved)
attr title "Cache Removals, last"
attr unit byte
scalar OPSHeraldNetwork.host[1] fwdAvgHopsTravelled:last 28.43240228449
attr source sum(fwdHopsTravelled)/sum(fwdHopsTravelledCount)
attr title "Average Hops Travelled, last"
scalar OPSHeraldNetwork.host[1] fwdTotalBytesReceived:last 583524620
attr source sum(fwdTotalBytesReceived)
attr title "Total Received, last"
attr unit byte
scalar OPSHeraldNetwork.host[1] fwdDPTableDataBytesReceived:last -nan
attr source sum(fwdDPTableDataBytesReceived)
attr title "DP Table Data Received, last"
attr unit byte
scalar OPSHeraldNetwork.host[1] fwdDPTableRequestBytesReceived:last -nan
attr source sum(fwdDPTableRequestBytesReceived)
attr title "DP Table Requests Received, last"
attr unit byte
scalar OPSHeraldNetwork.host[1] fwdDataReqBytesReceived:last -nan
attr source sum(fwdDataReqBytesReceived)
attr title "Data Requests Received, last"
attr unit byte
scalar OPSHeraldNetwork.host[1] fwdSumVecBytesReceived:last -nan
attr source sum(fwdSumVecBytesReceived)
attr title "Summary Vectors Received, last"
attr unit byte
scalar OPSHeraldNetwork.host[1] fwdDataBytesReceived:last 583524620
attr source sum(fwdDataBytesReceived)
attr title "Data Received, last"
attr unit byte
scalar OPSHeraldNetwork.host[1] appTotalDataCountReceived2:last 2083
attr source sum(appTotalDataCountReceived2)
scalar OPSHeraldNetwork.host[1] appTotalDataBytesReceived2:last 52388973
attr source sum(appTotalDataBytesReceived2)
scalar OPSHeraldNetwork.host[1] appTotalDataReceivedDelay2:mean 56189.349808008
attr source appTotalDataReceivedDelay2
scalar OPSHeraldNetwork.host[1] appNonLikedDataReceivedDelay2:mean 56223.621097926
attr source appNonLikedDataReceivedDelay2
scalar OPSHeraldNetwork.host[1] appLikedDataReceivedDelay2:mean 56086.601718081
attr source appLikedDataReceivedDelay2
scalar OPSHeraldNetwork.host[1] appTotalDataAvgHopCount:last 12.002880460874
attr source sum(appTotalDataHopsForAvgHopsComp)/sum(appTotalDataHopsCountForAvgHopsComp)
scalar OPSHeraldNetwork.host[1] appNonLikedDataAvgHopCount:last 11.910371318822
attr source sum(appNonLikedDataHopsForAvgHopsComp)/sum(appNonLikedDataHopsCountForAvgHopsComp)
scalar OPSHeraldNetwork.host[1] appLikedDataAvgHopCount:last 12.280230326296
attr source sum(appLikedDataHopsForAvgHopsComp)/sum(appLikedDataHopsCountForAvgHopsComp)
scalar OPSHeraldNetwork.host[1] appTotalDataDeliveryRatio:last 0.54514524993457
attr source sum(appTotalDataCountReceivedForRatioComp)/sum(appTotalDataCountMaxReceivableForRatioComp)
scalar OPSHeraldNetwork.host[1] appNonLikedDataDeliveryRatio:last 0.54711033274956
attr source sum(appNonLikedDataCountReceivedForRatioComp)/sum(appNonLikedDataCountMaxReceivableForRatioComp)
scalar OPSHeraldNetwork.host[1] appLikedDataDeliveryRatio:last 0.53933747412008
attr source sum(appLikedDataCountReceivedForRatioComp)/sum(appLikedDataCountMaxReceivableForRatioComp)
scalar OPSHeraldNetwork.host[1] appTotalDataReceivedAvgDelay:last 56189.349808008
attr source sum(appTotalDataReceivedDelay)/sum(appTotalDataCountReceivedForAvgDelayComp)
scalar OPSHeraldNetwork.host[1] appNonLikedDataReceivedAvgDelay:last 56223.621097926
attr source sum(appNonLikedDataReceivedDelay)/sum(appNonLikedDataCountReceivedForAvgDelayComp)
scalar OPSHeraldNetwork.host[1] appLikedDataReceivedAvgDelay:last 56086.601718081
attr source sum(appLikedDataReceivedDelay)/sum(appLikedDataCountReceivedForAvgDelayComp)
scalar OPSHeraldNetwork.host[1] appTotalDataCountMaxReceivable:last 3821
attr source sum(appTotalDataCountMaxReceivable)
scalar OPSHeraldNetwork.host[1] appNonLikedDataCountMaxReceivable:last 2855
attr source sum(appNonLikedDataCountMaxReceivable)
scalar OPSHeraldNetwork.host[1] appLikedDataCountMaxReceivable:last 966
attr source sum(appLikedDataCountMaxReceivable)
scalar OPSHeraldNetwork.host[1] appTotalDataBytesMaxReceivable:last 95427340
attr source sum(appTotalDataBytesMaxReceivable)
scalar OPSHeraldNetwork.host[1] appNonLikedDataBytesMaxReceivable:last 71032280
attr source sum(appNonLikedDataBytesMaxReceivable)
scalar OPSHeraldNetwork.host[1] appLikedDataBytesMaxReceivable:last 24395060
attr source sum(appLikedDataBytesMaxReceivable)
scalar OPSHeraldNetwork.host[1] appTotalDataCountReceived:last 22412
attr source sum(appTotalDataCountReceived)
scalar OPSHeraldNetwork.host[1] appDuplicateDataCountReceived:last 20329
attr source sum(appDuplicateDataCountReceived)
scalar OPSHeraldNetwork.host[1] appNonLikedDataCountReceived:last 1562
attr source sum(appNonLikedDataCountReceived)
scalar OPSHeraldNetwork.host[1] appLikedDataCountReceived:last 521
attr source sum(appLikedDataCountReceived)
scalar OPSHeraldNetwork.host[1] appTotalDataBytesReceived:last 582964320
attr source sum(appTotalDataBytesReceived)
scalar OPSHeraldNetwork.host[1] appDuplicateDataBytesReceived:last 530575347
attr source sum(appDuplicateDataBytesReceived)
scalar OPSHeraldNetwork.host[1] appNonLikedDataBytesReceived:last 39102895
attr source sum(appNonLikedDataBytesReceived)
scalar OPSHeraldNetwork.host[1] appLikedDataBytesReceived:last 13286078
attr source sum(appLikedDataBytesReceived)
scalar OPSHeraldNetwork.host[2] linkSimpleNeighbourSize:mean 2.029164
attr source linkSimpleNeighSize
attr title "Simple Neighbour Size, mean"
scalar OPSHeraldNetwork.host[2] linkContactCount:last 86
attr source sum(linkContactCount)
attr title "Contact Count, last"
scalar OPSHeraldNetwork.host[2] linkAvgContactDuration:last 2636.8255813953
attr source sum(linkContactDuration)/sum(linkContactDurationCount)
attr title "Average Contact Duration, last"
attr unit s
scalar OPSHeraldNetwork.host[2] linkAvgNeighbourSize:last 2.029164
attr source sum(linkNeighSize)/sum(linkNeighSizeCount)
attr title "Average Neighbour Size, last"
scalar OPSHeraldNetwork.host[2] fwdTotalBytesSent:last 1145875974
attr source sum(fwdTotalBytesSent)
attr title "Total Sent, last"
attr unit byte
scalar OPSHeraldNetwork.host[2] fwdDPTableDataBytesSent:last -nan
attr source sum(fwdDPTableDataBytesSent)
attr title "DP Table Data Sent, last"
attr unit byte
scalar OPSHeraldNetwork.host[2] fwdDPTableRequestBytesSent:last -nan
attr source sum(fwdDPTableRequestBytesSent)
attr title "DP Table Requests Sent, last"
attr unit byte
scalar OPSHeraldNetwork.host[2] fwdDataReqBytesSent:last -nan
attr source sum(fwdDataReqBytesSent)
attr title "Data Requests Sent, last"
attr unit byte
scalar OPSHeraldNetwork.host[2] fwdSumVecBytesSent:last -nan
attr source sum(fwdSumVecBytesSent)
attr title "Summary Vectors Sent, last"
attr unit byte
scalar OPSHeraldNetwork.host[2] fwdDataBytesSent:last 1145875974
attr source sum(fwdDataBytesSent)
attr title "Data Sent, last"
attr unit byte
scalar OPSHeraldNetwork.host[2] fwdCurrentCacheSizeBytes2:last 55773361
attr source fwdCurrentCacheSizeBytes2
attr title "Cache Size, last"
attr unit byte
scalar OPSHeraldNetwork.host[2] fwdCurrentCacheSizeBytes2:mean 27119294.870152
attr source fwdCurrentCacheSizeBytes2
attr title "Cache Size, mean"
attr unit byte
scalar OPSHeraldNetwork.host[2] fwdCurrentCacheSizeBytesPeriodic:last 55773361
attr source fwdCurrentCacheSizeBytesPeriodic
attr title "Periodic Cache Size, last"
attr unit byte
scalar OPSHeraldNetwork.host[2] fwdCurrentCacheSizeBytesPeriodic:mean 25363224.8476
attr source fwdCurrentCacheSizeBytesPeriodic
attr title "Periodic Cache Size, mean"
attr unit byte
scalar OPSHeraldNetwork.host[2] fwdCurrentCacheSizeBytesAvg:last 27119294.870152
attr source sum(fwdCurrentCacheSizeBytes)/sum(fwdCurrentCacheSizeReportedCount)
attr title "Average Cache Size, last"
attr unit byte
scalar OPSHeraldNetwork.host[2] fwdCacheBytesUpdated:last 1363084582
attr source sum(fwdCacheBytesUpdated)
attr title "Cache Updates, last"
attr unit byte
scalar OPSHeraldNetwork.host[2] fwdCacheBytesAdded:last 55773361
attr source sum(fwdCacheBytesAdded)
attr title "Cache Additions, last"
attr unit byte
scalar OPSHeraldNetwork.host[2] fwdCacheBytesRemoved:last -nan
attr source sum(fwdCacheBytesRemoved)
attr title "Cache Removals, last"
attr unit byte
scalar OPSHeraldNetwork.host[2] fwdAvgHopsTravelled:last 33.730439748715
attr source sum(fwdHopsTravelled)/sum(fwdHopsTravelledCount)
attr title "Average Hops Travelled, last"
scalar OPSHeraldNetwork.host[2] fwdTotalBytesReceived:last 1419826269
attr source sum(fwdTotalBytesReceived)
attr title "Total Received, last"
attr unit byte
scalar OPSHeraldNetwork.host[2] fwdDPTableDataBytesReceived:last -nan
attr source sum(fwdDPTableDataBytesReceived)
attr title "DP Table Data Received, last"
attr unit byte
scalar OPSHeraldNetwork.host[2] fwdDPTableRequestBytesReceived:last -nan
attr source sum(fwdDPTableRequestBytesReceived)
attr title "DP Table Requests Received, last"
attr unit byte
scalar OPSHeraldNetwork.host[2] fwdDataReqBytesReceived:last -nan
attr source sum(fwdDataReqBytesReceived)
attr title "Data Requests Received, last"
attr unit byte
scalar OPSHeraldNetwork.host[2] fwdSumVecBytesReceived:last -nan
attr source sum(fwdSumVecBytesReceived)
attr title "Summary Vectors Received, last"
attr unit byte
scalar OPSHeraldNetwork.host[2] fwdDataBytesReceived:last 1419826269
attr source sum(fwdDataBytesReceived)
attr title "Data Received, last"
attr unit byte
scalar OPSHeraldNetwork.host[2] appTotalDataCountReceived2:last 2213
attr source sum(appTotalDataCountReceived2)
scalar OPSHeraldNetwork.host[2] appTotalDataBytesReceived2:last 55340887
attr source sum(appTotalDataBytesReceived2)
scalar OPSHeraldNetwork.host[2] appTotalDataReceivedDelay2:mean 51092.914247447
attr source appTotalDataReceivedDelay2
scalar OPSHeraldNetwork.host[2] appNonLikedDataReceivedDelay2:mean 50414.378464135
attr source appNonLikedDataReceivedDelay2
scalar OPSHeraldNetwork.host[2] appLikedDataReceivedDelay2:mean 53124.847215884
attr source appLikedDataReceivedDelay2
scalar OPSHeraldNetwork.host[2] appTotalDataAvgHopCount:last 10.390872119295
attr source sum(appTotalDataHopsForAvgHopsComp)/sum(appTotalDataHopsCountForAvgHopsComp)
scalar OPSHeraldNetwork.host[2] appNonLikedDataAvgHopCount:last 10.088607594937
attr source sum(appNonLikedDataHopsForAvgHopsComp)/sum(appNonLikedDataHopsCountForAvgHopsComp)
scalar OPSHeraldNetwork.host[2] appLikedDataAvgHopCount:last 11.296028880866
attr source sum(appLikedDataHopsForAvgHopsComp)/sum(appLikedDataHopsCountForAvgHopsComp)
scalar OPSHeraldNetwork.host[2] appTotalDataDeliveryRatio:last 0.57931937172775
attr source sum(appTotalDataCountReceivedForRatioComp)/sum(appTotalDataCountMaxReceivableForRatioComp)
scalar OPSHeraldNetwork.host[2] appNonLikedDataDeliveryRatio:last 0.58006993006993
attr source sum(appNonLikedDataCountReceivedForRatioComp)/sum(appNonLikedDataCountMaxReceivableForRatioComp)
scalar OPSHeraldNetwork.host[2] appLikedDataDeliveryRatio:last 0.57708333333333
attr source sum(appLikedDataCountReceivedForRatioComp)/sum(appLikedDataCountMaxReceivableForRatioComp)
scalar OPSHeraldNetwork.host[2] appTotalDataReceivedAvgDelay:last 51092.914247447
attr source sum(appTotalDataReceivedDelay)/sum(appTotalDataCountReceivedForAvgDelayComp)
scalar OPSHeraldNetwork.host[2] appNonLikedDataReceivedAvgDelay:last 50414.378464135
attr source sum(appNonLikedDataReceivedDelay)/sum(appNonLikedDataCountReceivedForAvgDelayComp)
scalar OPSHeraldNetwork.host[2] appLikedDataReceivedAvgDelay:last 53124.847215884
attr source sum(appLikedDataReceivedDelay)/sum(appLikedDataCountReceivedForAvgDelayComp)
scalar OPSHeraldNetwork.host[2] appTotalDataCountMaxReceivable:last 3820
attr source sum(appTotalDataCountMaxReceivable)
scalar OPSHeraldNetwork.host[2] appNonLikedDataCountMaxReceivable:last 2860
attr source sum(appNonLikedDataCountMaxReceivable)
scalar OPSHeraldNetwork.host[2] appLikedDataCountMaxReceivable:last 960
attr source sum(appLikedDataCountMaxReceivable)
scalar OPSHeraldNetwork.host[2] appTotalDataBytesMaxReceivable:last 95436461
attr source sum(appTotalDataBytesMaxReceivable)
scalar OPSHeraldNetwork.host[2] appNonLikedDataBytesMaxReceivable:last 71191032
attr source sum(appNonLikedDataBytesMaxReceivable)
scalar OPSHeraldNetwork.host[2] appLikedDataBytesMaxReceivable:last 24245429
attr source sum(appLikedDataBytesMaxReceivable)
scalar OPSHeraldNetwork.host[2] appTotalDataCountReceived:last 56032
attr source sum(appTotalDataCountReceived)
scalar OPSHeraldNetwork.host[2] appDuplicateDataCountReceived:last 53819
attr source sum(appDuplicateDataCountReceived)
scalar OPSHeraldNetwork.host[2] appNonLikedDataCountReceived:last 1659
attr source sum(appNonLikedDataCountReceived)
scalar OPSHeraldNetwork.host[2] appLikedDataCountReceived:last 554
attr source sum(appLikedDataCountReceived)
scalar OPSHeraldNetwork.host[2] appTotalDataBytesReceived:last 1418425469
attr source sum(appTotalDataBytesReceived)
scalar OPSHeraldNetwork.host[2] appDuplicateDataBytesReceived:last 1363084582
attr source sum(appDuplicateDataBytesReceived)
scalar OPSHeraldNetwork.host[2] appNonLikedDataBytesReceived:last 41316631
attr source sum(appNonLikedDataBytesReceived)
scalar OPSHeraldNetwork.host[2] appLikedDataBytesReceived:last 14024256
attr source sum(appLikedDataBytesReceived)
scalar OPSHeraldNetwork.host[3] linkSimpleNeighbourSize:mean 0.906168
attr source linkSimpleNeighSize
attr title "Simple Neighbour Size, mean"
scalar OPSHeraldNetwork.host[3] linkContactCount:last 317
attr source sum(linkContactCount)
attr title "Contact Count, last"
scalar OPSHeraldNetwork.host[3] linkAvgContactDuration:last 408.40694006309
attr source sum(linkContactDuration)/sum(linkContactDurationCount)
attr title "Average Contact Duration, last"
attr unit s
scalar OPSHeraldNetwork.host[3] linkAvgNeighbourSize:last 0.906168
attr source sum(linkNeighSize)/sum(linkNeighSizeCount)
attr title "Average Neighbour Size, last"
scalar OPSHeraldNetwork.host[3] fwdTotalBytesSent:last 642417293
attr source sum(fwdTotalBytesSent)
attr title "Total Sent, last"
attr unit byte
scalar OPSHeraldNetwork.host[3] fwdDPTableDataBytesSent:last -nan
attr source sum(fwdDPTableDataBytesSent)
attr title "DP Table Data Sent, last"
attr unit byte
scalar OPSHeraldNetwork.host[3] fwdDPTableRequestBytesSent:last -nan
attr source sum(fwdDPTableRequestBytesSent)
attr title "DP Table Requests Sent, last"
attr unit byte
scalar OPSHeraldNetwork.host[3] fwdDataReqBytesSent:last -nan
attr source sum(fwdDataReqBytesSent)
attr title "Data Requests Sent, last"
attr unit byte
scalar OPSHeraldNetwork.host[3] fwdSumVecBytesSent:last -nan
attr source sum(fwdSumVecBytesSent)
attr title "Summary Vectors Sent, last"
attr unit byte
scalar OPSHeraldNetwork.host[3] fwdDataBytesSent:last 642417293
attr source sum(fwdDataBytesSent)
attr title "Data Sent, last"
attr unit byte
scalar OPSHeraldNetwork.host[3] fwdCurrentCacheSizeBytes2:last 51091700
attr source fwdCurrentCacheSizeBytes2
attr title "Cache Size, last"
attr unit byte
scalar OPSHeraldNetwork.host[3] fwdCurrentCacheSizeBytes2:mean 21780632.60594
attr source fwdCurrentCacheSizeBytes2
attr title "Cache Size, mean"
attr unit byte
scalar OPSHeraldNetwork.host[3] fwdCurrentCacheSizeBytesPeriodic:last 51091700
attr source fwdCurrentCacheSizeBytesPeriodic
attr title "Periodic Cache Size, last"
attr unit byte
scalar OPSHeraldNetwork.host[3] fwdCurrentCacheSizeBytesPeriodic:mean 22348379.1084
attr source fwdCurrentCacheSizeBytesPeriodic
attr title "Periodic Cache Size, mean"
attr unit byte
scalar OPSHeraldNetwork.host[3] fwdCurrentCacheSizeBytesAvg:last 21780632.60594
attr source sum(fwdCurrentCacheSizeBytes)/sum(fwdCurrentCacheSizeReportedCount)
attr title "Average Cache Size, last"
attr unit byte
scalar OPSHeraldNetwork.host[3] fwdCacheBytesUpdated:last 553119200
attr source sum(fwdCacheBytesUpdated)
attr title "Cache Updates, last"
attr unit byte
scalar OPSHeraldNetwork.host[3] fwdCacheBytesAdded:last 51091700
attr source sum(fwdCacheBytesAdded)
attr title "Cache Additions, last"
attr unit byte
scalar OPSHeraldNetwork.host[3] fwdCacheBytesRemoved:last -nan
attr source sum(fwdCacheBytesRemoved)
attr title "Cache Removals, last"
attr unit byte
scalar OPSHeraldNetwork.host[3] fwdAvgHopsTravelled:last 43.870651277824
attr source sum(fwdHopsTravelled)/sum(fwdHopsTravelledCount)
attr title "Average Hops Travelled, last"
scalar OPSHeraldNetwork.host[3] fwdTotalBytesReceived:last 604365245
attr source sum(fwdTotalBytesReceived)
attr title "Total Received, last"
attr unit byte
scalar OPSHeraldNetwork.host[3] fwdDPTableDataBytesReceived:last -nan
attr source sum(fwdDPTableDataBytesReceived)
attr title "DP Table Data Received, last"
attr unit byte
scalar OPSHeraldNetwork.host[3] fwdDPTableRequestBytesReceived:last -nan
attr source sum(fwdDPTableRequestBytesReceived)
attr title "DP Table Requests Received, last"
attr unit byte
scalar OPSHeraldNetwork.host[3] fwdDataReqBytesReceived:last -nan
attr source sum(fwdDataReqBytesReceived)
attr title "Data Requests Received, last"
attr unit byte
scalar OPSHeraldNetwork.host[3] fwdSumVecBytesReceived:last -nan
attr source sum(fwdSumVecBytesReceived)
attr title "Summary Vectors Received, last"
attr unit byte
scalar OPSHeraldNetwork.host[3] fwdDataBytesReceived:last 604365245
attr source sum(fwdDataBytesReceived)
attr title "Data Received, last"
attr unit byte
scalar OPSHeraldNetwork.host[3] appTotalDataCountReceived2:last 2019
attr source sum(appTotalDataCountReceived2)
scalar OPSHeraldNetwork.host[3] appTotalDataBytesReceived2:last 50639545
attr source sum(appTotalDataBytesReceived2)
scalar OPSHeraldNetwork.host[3] appTotalDataReceivedDelay2:mean 58578.795386785
attr source appTotalDataReceivedDelay2
scalar OPSHeraldNetwork.host[3] appNonLikedDataReceivedDelay2:mean 58124.570240529
attr source appNonLikedDataReceivedDelay2
scalar OPSHeraldNetwork.host[3] appLikedDataReceivedDelay2:mean 59936.982434783
attr source appLikedDataReceivedDelay2
scalar OPSHeraldNetwork.host[3] appTotalDataAvgHopCount:last 13.02922238732
attr source sum(appTotalDataHopsForAvgHopsComp)/sum(appTotalDataHopsCountForAvgHopsComp)
scalar OPSHeraldNetwork.host[3] appNonLikedDataAvgHopCount:last 12.788499669531
attr source sum(appNonLikedDataHopsForAvgHopsComp)/sum(appNonLikedDataHopsCountForAvgHopsComp)
scalar OPSHeraldNetwork.host[3] appLikedDataAvgHopCount:last 13.749011857708
attr source sum(appLikedDataHopsForAvgHopsComp)/sum(appLikedDataHopsCountForAvgHopsComp)
scalar OPSHeraldNetwork.host[3] appTotalDataDeliveryRatio:last 0.52853403141361
attr source sum(appTotalDataCountReceivedForRatioComp)/sum(appTotalDataCountMaxReceivableForRatioComp)
scalar OPSHeraldNetwork.host[3] appNonLikedDataDeliveryRatio:last 0.52920601608954
attr source sum(appNonLikedDataCountReceivedForRatioComp)/sum(appNonLikedDataCountMaxReceivableForRatioComp)
scalar OPSHeraldNetwork.host[3] appLikedDataDeliveryRatio:last 0.52653485952133
attr source sum(appLikedDataCountReceivedForRatioComp)/sum(appLikedDataCountMaxReceivableForRatioComp)
scalar OPSHeraldNetwork.host[3] appTotalDataReceivedAvgDelay:last 58578.795386785
attr source sum(appTotalDataReceivedDelay)/sum(appTotalDataCountReceivedForAvgDelayComp)
scalar OPSHeraldNetwork.host[3] appNonLikedDataReceivedAvgDelay:last 58124.570240529
attr source sum(appNonLikedDataReceivedDelay)/sum(appNonLikedDataCountReceivedForAvgDelayComp)
scalar OPSHeraldNetwork.host[3] appLikedDataReceivedAvgDelay:last 59936.982434783
attr source sum(appLikedDataReceivedDelay)/sum(appLikedDataCountReceivedForAvgDelayComp)
scalar OPSHeraldNetwork.host[3] appTotalDataCountMaxReceivable:last 3820
attr source sum(appTotalDataCountMaxReceivable)
scalar OPSHeraldNetwork.host[3] appNonLikedDataCountMaxReceivable:last 2859
attr source sum(appNonLikedDataCountMaxReceivable)
scalar OPSHeraldNetwork.host[3] appLikedDataCountMaxReceivable:last 961
attr source sum(appLikedDataCountMaxReceivable)
scalar OPSHeraldNetwork.host[3] appTotalDataBytesMaxReceivable:last 95416780
attr source sum(appTotalDataBytesMaxReceivable)
scalar OPSHeraldNetwork.host[3] appNonLikedDataBytesMaxReceivable:last 71190942
attr source sum(appNonLikedDataBytesMaxReceivable)
scalar OPSHeraldNetwork.host[3] appLikedDataBytesMaxReceivable:last 24225838
attr source sum(appLikedDataBytesMaxReceivable)
scalar OPSHeraldNetwork.host[3] appTotalDataCountReceived:last 24260
attr source sum(appTotalDataCountReceived)
scalar OPSHeraldNetwork.host[3] appDuplicateDataCountReceived:last 22241
attr source sum(appDuplicateDataCountReceived)
scalar OPSHeraldNetwork.host[3] appNonLikedDataCountReceived:last 1513
attr source sum(appNonLikedDataCountReceived)
scalar OPSHeraldNetwork.host[3] appLikedDataCountReceived:last 506
attr source sum(appLikedDataCountReceived)
scalar OPSHeraldNetwork.host[3] appTotalDataBytesReceived:last 603758745
attr source sum(appTotalDataBytesReceived)
scalar OPSHeraldNetwork.host[3] appDuplicateDataBytesReceived:last 553119200
attr source sum(appDuplicateDataBytesReceived)
scalar OPSHeraldNetwork.host[3] appNonLikedDataBytesReceived:last 37626391
attr source sum(appNonLikedDataBytesReceived)
scalar OPSHeraldNetwork.host[3] appLikedDataBytesReceived:last 13013154
attr source sum(appLikedDataBytesReceived)
scalar OPSHeraldNetwork.host[4] linkSimpleNeighbourSize:mean 1.58842
attr source linkSimpleNeighSize
attr title "Simple Neighbour Size, mean"
scalar OPSHeraldNetwork.host[4] linkContactCount:last 112
attr source sum(linkContactCount)
attr title "Contact Count, last"
scalar OPSHeraldNetwork.host[4] linkAvgContactDuration:last 1972.2857142857
attr source sum(linkContactDuration)/sum(linkContactDurationCount)
attr title "Average Contact Duration, last"
attr unit s
scalar OPSHeraldNetwork.host[4] linkAvgNeighbourSize:last 1.58842
attr source sum(linkNeighSize)/sum(linkNeighSizeCount)
attr title "Average Neighbour Size, last"
scalar OPSHeraldNetwork.host[4] fwdTotalBytesSent:last 1124837541
attr source sum(fwdTotalBytesSent)
attr title "Total Sent, last"
attr unit byte
scalar OPSHeraldNetwork.host[4] fwdDPTableDataBytesSent:last -nan
attr source sum(fwdDPTableDataBytesSent)
attr title "DP Table Data Sent, last"
attr unit byte
scalar OPSHeraldNetwork.host[4] fwdDPTableRequestBytesSent:last -nan
attr source sum(fwdDPTableRequestBytesSent)
attr title "DP Table Requests Sent, last"
attr unit byte
scalar OPSHeraldNetwork.host[4] fwdDataReqBytesSent:last -nan
attr source sum(fwdDataReqBytesSent)
attr title "Data Requests Sent, last"
attr unit byte
scalar OPSHeraldNetwork.host[4] fwdSumVecBytesSent:last -nan
attr source sum(fwdSumVecBytesSent)
attr title "Summary Vectors Sent, last"
attr unit byte
scalar OPSHeraldNetwork.host[4] fwdDataBytesSent:last 1124837541
attr source sum(fwdDataBytesSent)
attr title "Data Sent, last"
attr unit byte
scalar OPSHeraldNetwork.host[4] fwdCurrentCacheSizeBytes2:last 51875689
attr source fwdCurrentCacheSizeBytes2
attr title "Cache Size, last"
attr unit byte
scalar OPSHeraldNetwork.host[4] fwdCurrentCacheSizeBytes2:mean 21448575.617845
attr source fwdCurrentCacheSizeBytes2
attr title "Cache Size, mean"
attr unit byte
scalar OPSHeraldNetwork.host[4] fwdCurrentCacheSizeBytesPeriodic:last 51875689
attr source fwdCurrentCacheSizeBytesPeriodic
attr title "Periodic Cache Size, last"
attr unit byte
scalar OPSHeraldNetwork.host[4] fwdCurrentCacheSizeBytesPeriodic:mean 23842714.1352
attr source fwdCurrentCacheSizeBytesPeriodic
attr title "Periodic Cache Size, mean"
attr unit byte
scalar OPSHeraldNetwork.host[4] fwdCurrentCacheSizeBytesAvg:last 21448575.617845
attr source sum(fwdCurrentCacheSizeBytes)/sum(fwdCurrentCacheSizeReportedCount)
attr title "Average Cache Size, last"
attr unit byte
scalar OPSHeraldNetwork.host[4] fwdCacheBytesUpdated:last 1058934844
attr source sum(fwdCacheBytesUpdated)
attr title "Cache Updates, last"
attr unit byte
scalar OPSHeraldNetwork.host[4] fwdCacheBytesAdded:last 51875689
attr source sum(fwdCacheBytesAdded)
attr title "Cache Additions, last"
attr unit byte
scalar OPSHeraldNetwork.host[4] fwdCacheBytesRemoved:last -nan
attr source sum(fwdCacheBytesRemoved)
attr title "Cache Removals, last"
attr unit byte
scalar OPSHeraldNetwork.host[4] fwdAvgHopsTravelled:last 48.080877951447
attr source sum(fwdHopsTravelled)/sum(fwdHopsTravelledCount)
attr title "Average Hops Travelled, last"
scalar OPSHeraldNetwork.host[4] fwdTotalBytesReceived:last 1111530720
attr source sum(fwdTotalBytesReceived)
attr title "Total Received, last"
attr unit byte
scalar OPSHeraldNetwork.host[4] fwdDPTableDataBytesReceived:last -nan
attr source sum(fwdDPTableDataBytesReceived)
attr title "DP Table Data Received, last"
attr unit byte
scalar OPSHeraldNetwork.host[4] fwdDPTableRequestBytesReceived:last -nan
attr source sum(fwdDPTableRequestBytesReceived)
attr title "DP Table Requests Received, last"
attr unit byte
scalar OPSHeraldNetwork.host[4] fwdDataReqBytesReceived:last -nan
attr source sum(fwdDataReqBytesReceived)
attr title "Data Requests Received, last"
attr unit byte
scalar OPSHeraldNetwork.host[4] fwdSumVecBytesReceived:last -nan
attr source sum(fwdSumVecBytesReceived)
attr title "Summary Vectors Received, last"
attr unit byte
scalar OPSHeraldNetwork.host[4] fwdDataBytesReceived:last 1111530720
attr source sum(fwdDataBytesReceived)
attr title "Data Received, last"
attr unit byte
scalar OPSHeraldNetwork.host[4] appTotalDataCountReceived2:last 2054
attr source sum(appTotalDataCountReceived2)
scalar OPSHeraldNetwork.host[4] appTotalDataBytesReceived2:last 51468251
attr source sum(appTotalDataBytesReceived2)
scalar OPSHeraldNetwork.host[4] appTotalDataReceivedDelay2:mean 53964.497466991
attr source appTotalDataReceivedDelay2
scalar OPSHeraldNetwork.host[4] appNonLikedDataReceivedDelay2:mean 53493.286870273
attr source appNonLikedDataReceivedDelay2
scalar OPSHeraldNetwork.host[4] appLikedDataReceivedDelay2:mean 55368.997268837
attr source appLikedDataReceivedDelay2
scalar OPSHeraldNetwork.host[4] appTotalDataAvgHopCount:last 12.363680623174
attr source sum(appTotalDataHopsForAvgHopsComp)/sum(appTotalDataHopsCountForAvgHopsComp)
scalar OPSHeraldNetwork.host[4] appNonLikedDataAvgHopCount:last 12.079323797139
attr source sum(appNonLikedDataHopsForAvgHopsComp)/sum(appNonLikedDataHopsCountForAvgHopsComp)
scalar OPSHeraldNetwork.host[4] appLikedDataAvgHopCount:last 13.211240310078
attr source sum(appLikedDataHopsForAvgHopsComp)/sum(appLikedDataHopsCountForAvgHopsComp)
scalar OPSHeraldNetwork.host[4] appTotalDataDeliveryRatio:last 0.53769633507853
attr source sum(appTotalDataCountReceivedForRatioComp)/sum(appTotalDataCountMaxReceivableForRatioComp)
scalar OPSHeraldNetwork.host[4] appNonLikedDataDeliveryRatio:last 0.53795033228402
attr source sum(appNonLikedDataCountReceivedForRatioComp)/sum(appNonLikedDataCountMaxReceivableForRatioComp)
scalar OPSHeraldNetwork.host[4] appLikedDataDeliveryRatio:last 0.5369406867846
attr source sum(appLikedDataCountReceivedForRatioComp)/sum(appLikedDataCountMaxReceivableForRatioComp)
scalar OPSHeraldNetwork.host[4] appTotalDataReceivedAvgDelay:last 53964.497466991
attr source sum(appTotalDataReceivedDelay)/sum(appTotalDataCountReceivedForAvgDelayComp)
scalar OPSHeraldNetwork.host[4] appNonLikedDataReceivedAvgDelay:last 53493.286870273
attr source sum(appNonLikedDataReceivedDelay)/sum(appNonLikedDataCountReceivedForAvgDelayComp)
scalar OPSHeraldNetwork.host[4] appLikedDataReceivedAvgDelay:last 55368.997268837
attr source sum(appLikedDataReceivedDelay)/sum(appLikedDataCountReceivedForAvgDelayComp)
scalar OPSHeraldNetwork.host[4] appTotalDataCountMaxReceivable:last 3820
attr source sum(appTotalDataCountMaxReceivable)
scalar OPSHeraldNetwork.host[4] appNonLikedDataCountMaxReceivable:last 2859
attr source sum(appNonLikedDataCountMaxReceivable)
scalar OPSHeraldNetwork.host[4] appLikedDataCountMaxReceivable:last 961
attr source sum(appLikedDataCountMaxReceivable)
scalar OPSHeraldNetwork.host[4] appTotalDataBytesMaxReceivable:last 95461497
attr source sum(appTotalDataBytesMaxReceivable)
scalar OPSHeraldNetwork.host[4] appNonLikedDataBytesMaxReceivable:last 71156751
attr source sum(appNonLikedDataBytesMaxReceivable)
scalar OPSHeraldNetwork.host[4] appLikedDataBytesMaxReceivable:last 24304746
attr source sum(appLikedDataBytesMaxReceivable)
scalar OPSHeraldNetwork.host[4] appTotalDataCountReceived:last 45105
attr source sum(appTotalDataCountReceived)
scalar OPSHeraldNetwork.host[4] appDuplicateDataCountReceived:last 43051
attr source sum(appDuplicateDataCountReceived)
scalar OPSHeraldNetwork.host[4] appNonLikedDataCountReceived:last 1538
attr source sum(appNonLikedDataCountReceived)
scalar OPSHeraldNetwork.host[4] appLikedDataCountReceived:last 516
attr source sum(appLikedDataCountReceived)
scalar OPSHeraldNetwork.host[4] appTotalDataBytesReceived:last 1110403095
attr source sum(appTotalDataBytesReceived)
scalar OPSHeraldNetwork.host[4] appDuplicateDataBytesReceived:last 1058934844
attr source sum(appDuplicateDataBytesReceived)
scalar OPSHeraldNetwork.host[4] appNonLikedDataBytesReceived:last 38212023
attr source sum(appNonLikedDataBytesReceived)
scalar OPSHeraldNetwork.host[4] appLikedDataBytesReceived:last 13256228
attr source sum(appLikedDataBytesReceived)
scalar OPSHeraldNetwork.host[5] linkSimpleNeighbourSize:mean 2.03912
attr source linkSimpleNeighSize
attr title "Simple Neighbour Size, mean"
scalar OPSHeraldNetwork.host[5] linkContactCount:last 30
attr source sum(linkContactCount)
attr title "Contact Count, last"
scalar OPSHeraldNetwork.host[5] linkAvgContactDuration:last 5525.2
attr source sum(linkContactDuration)/sum(linkContactDurationCount)
attr title "Average Contact Duration, last"
attr unit s
scalar OPSHeraldNetwork.host[5] linkAvgNeighbourSize:last 2.03912
attr source sum(linkNeighSize)/sum(linkNeighSizeCount)
attr title "Average Neighbour Size, last"
scalar OPSHeraldNetwork.host[5] fwdTotalBytesSent:last 932925999
attr source sum(fwdTotalBytesSent)
attr title "Total Sent, last"
attr unit byte
scalar OPSHeraldNetwork.host[5] fwdDPTableDataBytesSent:last -nan
attr source sum(fwdDPTableDataBytesSent)
attr title "DP Table Data Sent, last"
attr unit byte
scalar OPSHeraldNetwork.host[5] fwdDPTableRequestBytesSent:last -nan
attr source sum(fwdDPTableRequestBytesSent)
attr title "DP Table Requests Sent, last"
attr unit byte
scalar OPSHeraldNetwork.host[5] fwdDataReqBytesSent:last -nan
attr source sum(fwdDataReqBytesSent)
attr title "Data Requests Sent, last"
attr unit byte
scalar OPSHeraldNetwork.host[5] fwdSumVecBytesSent:last -nan
attr source sum(fwdSumVecBytesSent)
attr title "Summary Vectors Sent, last"
attr unit byte
scalar OPSHeraldNetwork.host[5] fwdDataBytesSent:last 932925999
attr source sum(fwdDataBytesSent)
attr title "Data Sent, last"
attr unit byte
scalar OPSHeraldNetwork.host[5] fwdCurrentCacheSizeBytes2:last 53987323
attr source fwdCurrentCacheSizeBytes2
attr title "Cache Size, last"
attr unit byte
scalar OPSHeraldNetwork.host[5] fwdCurrentCacheSizeBytes2:mean 30650383.08365
attr source fwdCurrentCacheSizeBytes2
attr title "Cache Size, mean"
attr unit byte
scalar OPSHeraldNetwork.host[5] fwdCurrentCacheSizeBytesPeriodic:last 53987323
attr source fwdCurrentCacheSizeBytesPeriodic
attr title "Periodic Cache Size, last"
attr unit byte
scalar OPSHeraldNetwork.host[5] fwdCurrentCacheSizeBytesPeriodic:mean 24148021.0952
attr source fwdCurrentCacheSizeBytesPeriodic
attr title "Periodic Cache Size, mean"
attr unit byte
scalar OPSHeraldNetwork.host[5] fwdCurrentCacheSizeBytesAvg:last 30650383.08365
attr source sum(fwdCurrentCacheSizeBytes)/sum(fwdCurrentCacheSizeReportedCount)
attr title "Average Cache Size, last"
attr unit byte
scalar OPSHeraldNetwork.host[5] fwdCacheBytesUpdated:last 1127577590
attr source sum(fwdCacheBytesUpdated)
attr title "Cache Updates, last"
attr unit byte
scalar OPSHeraldNetwork.host[5] fwdCacheBytesAdded:last 53987323
attr source sum(fwdCacheBytesAdded)
attr title "Cache Additions, last"
attr unit byte
scalar OPSHeraldNetwork.host[5] fwdCacheBytesRemoved:last -nan
attr source sum(fwdCacheBytesRemoved)
attr title "Cache Removals, last"
attr unit byte
scalar OPSHeraldNetwork.host[5] fwdAvgHopsTravelled:last 27.242149916907
attr source sum(fwdHopsTravelled)/sum(fwdHopsTravelledCount)
attr title "Average Hops Travelled, last"
scalar OPSHeraldNetwork.host[5] fwdTotalBytesReceived:last 1182279933
attr source sum(fwdTotalBytesReceived)
attr title "Total Received, last"
attr unit byte
scalar OPSHeraldNetwork.host[5] fwdDPTableDataBytesReceived:last -nan
attr source sum(fwdDPTableDataBytesReceived)
attr title "DP Table Data Received, last"
attr unit byte
scalar OPSHeraldNetwork.host[5] fwdDPTableRequestBytesReceived:last -nan
attr source sum(fwdDPTableRequestBytesReceived)
attr title "DP Table Requests Received, last"
attr unit byte
scalar OPSHeraldNetwork.host[5] fwdDataReqBytesReceived:last -nan
attr source sum(fwdDataReqBytesReceived)
attr title "Data Requests Received, last"
attr unit byte
scalar OPSHeraldNetwork.host[5] fwdSumVecBytesReceived:last -nan
attr source sum(fwdSumVecBytesReceived)
attr title "Summary Vectors Received, last"
attr unit byte
scalar OPSHeraldNetwork.host[5] fwdDataBytesReceived:last 1182279933
attr source sum(fwdDataBytesReceived)
attr title "Data Received, last"
attr unit byte
scalar OPSHeraldNetwork.host[5] appTotalDataCountReceived2:last 2144
attr source sum(appTotalDataCountReceived2)
scalar OPSHeraldNetwork.host[5] appTotalDataBytesReceived2:last 53559043
attr source sum(appTotalDataBytesReceived2)
scalar OPSHeraldNetwork.host[5] appTotalDataReceivedDelay2:mean 55195.903151007
attr source appTotalDataReceivedDelay2
scalar OPSHeraldNetwork.host[5] appNonLikedDataReceivedDelay2:mean 55381.702560546
attr source appNonLikedDataReceivedDelay2
scalar OPSHeraldNetwork.host[5] appLikedDataReceivedDelay2:mean 54632.916970226
attr source appLikedDataReceivedDelay2
scalar OPSHeraldNetwork.host[5] appTotalDataAvgHopCount:last 12.783115671642
attr source sum(appTotalDataHopsForAvgHopsComp)/sum(appTotalDataHopsCountForAvgHopsComp)
scalar OPSHeraldNetwork.host[5] appNonLikedDataAvgHopCount:last 12.701612903226
attr source sum(appNonLikedDataHopsForAvgHopsComp)/sum(appNonLikedDataHopsCountForAvgHopsComp)
scalar OPSHeraldNetwork.host[5] appLikedDataAvgHopCount:last 13.03007518797
attr source sum(appLikedDataHopsForAvgHopsComp)/sum(appLikedDataHopsCountForAvgHopsComp)
scalar OPSHeraldNetwork.host[5] appTotalDataDeliveryRatio:last 0.56125654450262
attr source sum(appTotalDataCountReceivedForRatioComp)/sum(appTotalDataCountMaxReceivableForRatioComp)
scalar OPSHeraldNetwork.host[5] appNonLikedDataDeliveryRatio:last 0.56482130343378
attr source sum(appNonLikedDataCountReceivedForRatioComp)/sum(appNonLikedDataCountMaxReceivableForRatioComp)
scalar OPSHeraldNetwork.host[5] appLikedDataDeliveryRatio:last 0.55072463768116
attr source sum(appLikedDataCountReceivedForRatioComp)/sum(appLikedDataCountMaxReceivableForRatioComp)
scalar OPSHeraldNetwork.host[5] appTotalDataReceivedAvgDelay:last 55195.903151007
attr source sum(appTotalDataReceivedDelay)/sum(appTotalDataCountReceivedForAvgDelayComp)
scalar OPSHeraldNetwork.host[5] appNonLikedDataReceivedAvgDelay:last 55381.702560546
attr source sum(appNonLikedDataReceivedDelay)/sum(appNonLikedDataCountReceivedForAvgDelayComp)
scalar OPSHeraldNetwork.host[5] appLikedDataReceivedAvgDelay:last 54632.916970226
attr source sum(appLikedDataReceivedDelay)/sum(appLikedDataCountReceivedForAvgDelayComp)
scalar OPSHeraldNetwork.host[5] appTotalDataCountMaxReceivable:last 3820
attr source sum(appTotalDataCountMaxReceivable)
scalar OPSHeraldNetwork.host[5] appNonLikedDataCountMaxReceivable:last 2854
attr source sum(appNonLikedDataCountMaxReceivable)
scalar OPSHeraldNetwork.host[5] appLikedDataCountMaxReceivable:last 966
attr source sum(appLikedDataCountMaxReceivable)
scalar OPSHeraldNetwork.host[5] appTotalDataBytesMaxReceivable:last 95440655
attr source sum(appTotalDataBytesMaxReceivable)
scalar OPSHeraldNetwork.host[5] appNonLikedDataBytesMaxReceivable:last 71034422
attr source sum(appNonLikedDataBytesMaxReceivable)
scalar OPSHeraldNetwork.host[5] appLikedDataBytesMaxReceivable:last 24406233
attr source sum(appLikedDataBytesMaxReceivable)
scalar OPSHeraldNetwork.host[5] appTotalDataCountReceived:last 45732
attr source sum(appTotalDataCountReceived)
scalar OPSHeraldNetwork.host[5] appDuplicateDataCountReceived:last 43588
attr source sum(appDuplicateDataCountReceived)
scalar OPSHeraldNetwork.host[5] appNonLikedDataCountReceived:last 1612
attr source sum(appNonLikedDataCountReceived)
scalar OPSHeraldNetwork.host[5] appLikedDataCountReceived:last 532
attr source sum(appLikedDataCountReceived)
scalar OPSHeraldNetwork.host[5] appTotalDataBytesReceived:last 1181136633
attr source sum(appTotalDataBytesReceived)
scalar OPSHeraldNetwork.host[5] appDuplicateDataBytesReceived:last 1127577590
attr source sum(appDuplicateDataBytesReceived)
scalar OPSHeraldNetwork.host[5] appNonLikedDataBytesReceived:last 40018003
attr source sum(appNonLikedDataBytesReceived)
scalar OPSHeraldNetwork.host[5] appLikedDataBytesReceived:last 13541040
attr source sum(appLikedDataBytesReceived)
scalar OPSHeraldNetwork.host[6] linkSimpleNeighbourSize:mean 0.177272
attr source linkSimpleNeighSize
attr title "Simple Neighbour Size, mean"
scalar OPSHeraldNetwork.host[6] linkContactCount:last 112
attr source sum(linkContactCount)
attr title "Contact Count, last"
scalar OPSHeraldNetwork.host[6] linkAvgContactDuration:last 257.5
attr source sum(linkContactDuration)/sum(linkContactDurationCount)
attr title "Average Contact Duration, last"
attr unit s
scalar OPSHeraldNetwork.host[6] linkAvgNeighbourSize:last 0.177272
attr source sum(linkNeighSize)/sum(linkNeighSizeCount)
attr title "Average Neighbour Size, last"
scalar OPSHeraldNetwork.host[6] fwdTotalBytesSent:last 145993536
attr source sum(fwdTotalBytesSent)
attr title "Total Sent, last"
attr unit byte
scalar OPSHeraldNetwork.host[6] fwdDPTableDataBytesSent:last -nan
attr source sum(fwdDPTableDataBytesSent)
attr title "DP Table Data Sent, last"
attr unit byte
scalar OPSHeraldNetwork.host[6] fwdDPTableRequestBytesSent:last -nan
attr source sum(fwdDPTableRequestBytesSent)
attr title "DP Table Requests Sent, last"
attr unit byte
scalar OPSHeraldNetwork.host[6] fwdDataReqBytesSent:last -nan
attr source sum(fwdDataReqBytesSent)
attr title "Data Requests Sent, last"
attr unit byte
scalar OPSHeraldNetwork.host[6] fwdSumVecBytesSent:last -nan
attr source sum(fwdSumVecBytesSent)
attr title "Summary Vectors Sent, last"
attr unit byte
scalar OPSHeraldNetwork.host[6] fwdDataBytesSent:last 145993536
attr source sum(fwdDataBytesSent)
attr title "Data Sent, last"
attr unit byte
scalar OPSHeraldNetwork.host[6] fwdCurrentCacheSizeBytes2:last 32012582
attr source fwdCurrentCacheSizeBytes2
attr title "Cache Size, last"
attr unit byte
scalar OPSHeraldNetwork.host[6] fwdCurrentCacheSizeBytes2:mean 17827475.215023
attr source fwdCurrentCacheSizeBytes2
attr title "Cache Size, mean"
attr unit byte
scalar OPSHeraldNetwork.host[6] fwdCurrentCacheSizeBytesPeriodic:last 32012582
attr source fwdCurrentCacheSizeBytesPeriodic
attr title "Periodic Cache Size, last"
attr unit byte
scalar OPSHeraldNetwork.host[6] fwdCurrentCacheSizeBytesPeriodic:mean 12704259.3808
attr source fwdCurrentCacheSizeBytesPeriodic
attr title "Periodic Cache Size, mean"
attr unit byte
scalar OPSHeraldNetwork.host[6] fwdCurrentCacheSizeBytesAvg:last 17827475.215023
attr source sum(fwdCurrentCacheSizeBytes)/sum(fwdCurrentCacheSizeReportedCount)
attr title "Average Cache Size, last"
attr unit byte
scalar OPSHeraldNetwork.host[6] fwdCacheBytesUpdated:last 39758632
attr source sum(fwdCacheBytesUpdated)
attr title "Cache Updates, last"
attr unit byte
scalar OPSHeraldNetwork.host[6] fwdCacheBytesAdded:last 32012582
attr source sum(fwdCacheBytesAdded)
attr title "Cache Additions, last"
attr unit byte
scalar OPSHeraldNetwork.host[6] fwdCacheBytesRemoved:last -nan
attr source sum(fwdCacheBytesRemoved)
attr title "Cache Removals, last"
attr unit byte
scalar OPSHeraldNetwork.host[6] fwdAvgHopsTravelled:last 24.841992117521
attr source sum(fwdHopsTravelled)/sum(fwdHopsTravelledCount)
attr title "Average Hops Travelled, last"
scalar OPSHeraldNetwork.host[6] fwdTotalBytesReceived:last 71377866
attr source sum(fwdTotalBytesReceived)
attr title "Total Received, last"
attr unit byte
scalar OPSHeraldNetwork.host[6] fwdDPTableDataBytesReceived:last -nan
attr source sum(fwdDPTableDataBytesReceived)
attr title "DP Table Data Received, last"
attr unit byte
scalar OPSHeraldNetwork.host[6] fwdDPTableRequestBytesReceived:last -nan
attr source sum(fwdDPTableRequestBytesReceived)
attr title "DP Table Requests Received, last"
attr unit byte
scalar OPSHeraldNetwork.host[6] fwdDataReqBytesReceived:last -nan
attr source sum(fwdDataReqBytesReceived)
attr title "Data Requests Received, last"
attr unit byte
scalar OPSHeraldNetwork.host[6] fwdSumVecBytesReceived:last -nan
attr source sum(fwdSumVecBytesReceived)
attr title "Summary Vectors Received, last"
attr unit byte
scalar OPSHeraldNetwork.host[6] fwdDataBytesReceived:last 71377866
attr source sum(fwdDataBytesReceived)
attr title "Data Received, last"
attr unit byte
scalar OPSHeraldNetwork.host[6] appTotalDataCountReceived2:last 1259
attr source sum(appTotalDataCountReceived2)
scalar OPSHeraldNetwork.host[6] appTotalDataBytesReceived2:last 31549459
attr source sum(appTotalDataBytesReceived2)
scalar OPSHeraldNetwork.host[6] appTotalDataReceivedDelay2:mean 82854.551379063
attr source appTotalDataReceivedDelay2
scalar OPSHeraldNetwork.host[6] appNonLikedDataReceivedDelay2:mean 83059.774149989
attr source appNonLikedDataReceivedDelay2
scalar OPSHeraldNetwork.host[6] appLikedDataReceivedDelay2:mean 82198.522588
attr source appLikedDataReceivedDelay2
scalar OPSHeraldNetwork.host[6] appTotalDataAvgHopCount:last 19.420174741859
attr source sum(appTotalDataHopsForAvgHopsComp)/sum(appTotalDataHopsCountForAvgHopsComp)
scalar OPSHeraldNetwork.host[6] appNonLikedDataAvgHopCount:last 18.834202294056
attr source sum(appNonLikedDataHopsForAvgHopsComp)/sum(appNonLikedDataHopsCountForAvgHopsComp)
scalar OPSHeraldNetwork.host[6] appLikedDataAvgHopCount:last 21.293333333333
attr source sum(appLikedDataHopsForAvgHopsComp)/sum(appLikedDataHopsCountForAvgHopsComp)
scalar OPSHeraldNetwork.host[6] appTotalDataDeliveryRatio:last 0.32958115183246
attr source sum(appTotalDataCountReceivedForRatioComp)/sum(appTotalDataCountMaxReceivableForRatioComp)
scalar OPSHeraldNetwork.host[6] appNonLikedDataDeliveryRatio:last 0.33601962158374
attr source sum(appNonLikedDataCountReceivedForRatioComp)/sum(appNonLikedDataCountMaxReceivableForRatioComp)
scalar OPSHeraldNetwork.host[6] appLikedDataDeliveryRatio:last 0.31055900621118
attr source sum(appLikedDataCountReceivedForRatioComp)/sum(appLikedDataCountMaxReceivableForRatioComp)
scalar OPSHeraldNetwork.host[6] appTotalDataReceivedAvgDelay:last 82854.551379063
attr source sum(appTotalDataReceivedDelay)/sum(appTotalDataCountReceivedForAvgDelayComp)
scalar OPSHeraldNetwork.host[6] appNonLikedDataReceivedAvgDelay:last 83059.774149989
attr source sum(appNonLikedDataReceivedDelay)/sum(appNonLikedDataCountReceivedForAvgDelayComp)
scalar OPSHeraldNetwork.host[6] appLikedDataReceivedAvgDelay:last 82198.522588
attr source sum(appLikedDataReceivedDelay)/sum(appLikedDataCountReceivedForAvgDelayComp)
scalar OPSHeraldNetwork.host[6] appTotalDataCountMaxReceivable:last 3820
attr source sum(appTotalDataCountMaxReceivable)
scalar OPSHeraldNetwork.host[6] appNonLikedDataCountMaxReceivable:last 2854
attr source sum(appNonLikedDataCountMaxReceivable)
scalar OPSHeraldNetwork.host[6] appLikedDataCountMaxReceivable:last 966
attr source sum(appLikedDataCountMaxReceivable)
scalar OPSHeraldNetwork.host[6] appTotalDataBytesMaxReceivable:last 95405812
attr source sum(appTotalDataBytesMaxReceivable)
scalar OPSHeraldNetwork.host[6] appNonLikedDataBytesMaxReceivable:last 70985513
attr source sum(appNonLikedDataBytesMaxReceivable)
scalar OPSHeraldNetwork.host[6] appLikedDataBytesMaxReceivable:last 24420299
attr source sum(appLikedDataBytesMaxReceivable)
scalar OPSHeraldNetwork.host[6] appTotalDataCountReceived:last 2791
attr source sum(appTotalDataCountReceived)
scalar OPSHeraldNetwork.host[6] appDuplicateDataCountReceived:last 1532
attr source sum(appDuplicateDataCountReceived)
scalar OPSHeraldNetwork.host[6] appNonLikedDataCountReceived:last 959
attr source sum(appNonLikedDataCountReceived)
scalar OPSHeraldNetwork.host[6] appLikedDataCountReceived:last 300
attr source sum(appLikedDataCountReceived)
scalar OPSHeraldNetwork.host[6] appTotalDataBytesReceived:last 71308091
attr source sum(appTotalDataBytesReceived)
scalar OPSHeraldNetwork.host[6] appDuplicateDataBytesReceived:last 39758632
attr source sum(appDuplicateDataBytesReceived)
scalar OPSHeraldNetwork.host[6] appNonLikedDataBytesReceived:last 23564554
attr source sum(appNonLikedDataBytesReceived)
scalar OPSHeraldNetwork.host[6] appLikedDataBytesReceived:last 7984905
attr source sum(appLikedDataBytesReceived)
scalar OPSHeraldNetwork.host[7] linkSimpleNeighbourSize:mean 0.278184
attr source linkSimpleNeighSize
attr title "Simple Neighbour Size, mean"
scalar OPSHeraldNetwork.host[7] linkContactCount:last 19
attr source sum(linkContactCount)
attr title "Contact Count, last"
scalar OPSHeraldNetwork.host[7] linkAvgContactDuration:last 797.21052631579
attr source sum(linkContactDuration)/sum(linkContactDurationCount)
attr title "Average Contact Duration, last"
attr unit s
scalar OPSHeraldNetwork.host[7] linkAvgNeighbourSize:last 0.278184
attr source sum(linkNeighSize)/sum(linkNeighSizeCount)
attr title "Average Neighbour Size, last"
scalar OPSHeraldNetwork.host[7] fwdTotalBytesSent:last 121766335
attr source sum(fwdTotalBytesSent)
attr title "Total Sent, last"
attr unit byte
scalar OPSHeraldNetwork.host[7] fwdDPTableDataBytesSent:last -nan
attr source sum(fwdDPTableDataBytesSent)
attr title "DP Table Data Sent, last"
attr unit byte
scalar OPSHeraldNetwork.host[7] fwdDPTableRequestBytesSent:last -nan
attr source sum(fwdDPTableRequestBytesSent)
attr title "DP Table Requests Sent, last"
attr unit byte
scalar OPSHeraldNetwork.host[7] fwdDataReqBytesSent:last -nan
attr source sum(fwdDataReqBytesSent)
attr title "Data Requests Sent, last"
attr unit byte
scalar OPSHeraldNetwork.host[7] fwdSumVecBytesSent:last -nan
attr source sum(fwdSumVecBytesSent)
attr title "Summary Vectors Sent, last"
attr unit byte
scalar OPSHeraldNetwork.host[7] fwdDataBytesSent:last 121766335
attr source sum(fwdDataBytesSent)
attr title "Data Sent, last"
attr unit byte
scalar OPSHeraldNetwork.host[7] fwdCurrentCacheSizeBytes2:last 41367893
attr source fwdCurrentCacheSizeBytes2
attr title "Cache Size, last"
attr unit byte
scalar OPSHeraldNetwork.host[7] fwdCurrentCacheSizeBytes2:mean 20472338.290897
attr source fwdCurrentCacheSizeBytes2
attr title "Cache Size, mean"
attr unit byte
scalar OPSHeraldNetwork.host[7] fwdCurrentCacheSizeBytesPeriodic:last 41367893
attr source fwdCurrentCacheSizeBytesPeriodic
attr title "Periodic Cache Size, last"
attr unit byte
scalar OPSHeraldNetwork.host[7] fwdCurrentCacheSizeBytesPeriodic:mean 15482768.6744
attr source fwdCurrentCacheSizeBytesPeriodic
attr title "Periodic Cache Size, mean"
attr unit byte
scalar OPSHeraldNetwork.host[7] fwdCurrentCacheSizeBytesAvg:last 20472338.290897
attr source sum(fwdCurrentCacheSizeBytes)/sum(fwdCurrentCacheSizeReportedCount)
attr title "Average Cache Size, last"
attr unit byte
scalar OPSHeraldNetwork.host[7] fwdCacheBytesUpdated:last 112442848
attr source sum(fwdCacheBytesUpdated)
attr title "Cache Updates, last"
attr unit byte
scalar OPSHeraldNetwork.host[7] fwdCacheBytesAdded:last 41367893
attr source sum(fwdCacheBytesAdded)
attr title "Cache Additions, last"
attr unit byte
scalar OPSHeraldNetwork.host[7] fwdCacheBytesRemoved:last -nan
attr source sum(fwdCacheBytesRemoved)
attr title "Cache Removals, last"
attr unit byte
scalar OPSHeraldNetwork.host[7] fwdAvgHopsTravelled:last 25.681580280263
attr source sum(fwdHopsTravelled)/sum(fwdHopsTravelledCount)
attr title "Average Hops Travelled, last"
scalar OPSHeraldNetwork.host[7] fwdTotalBytesReceived:last 153276859
attr source sum(fwdTotalBytesReceived)
attr title "Total Received, last"
attr unit byte
scalar OPSHeraldNetwork.host[7] fwdDPTableDataBytesReceived:last -nan
attr source sum(fwdDPTableDataBytesReceived)
attr title "DP Table Data Received, last"
attr unit byte
scalar OPSHeraldNetwork.host[7] fwdDPTableRequestBytesReceived:last -nan
attr source sum(fwdDPTableRequestBytesReceived)
attr title "DP Table Requests Received, last"
attr unit byte
scalar OPSHeraldNetwork.host[7] fwdDataReqBytesReceived:last -nan
attr source sum(fwdDataReqBytesReceived)
attr title "Data Requests Received, last"
attr unit byte
scalar OPSHeraldNetwork.host[7] fwdSumVecBytesReceived:last -nan
attr source sum(fwdSumVecBytesReceived)
attr title "Summary Vectors Received, last"
attr unit byte
scalar OPSHeraldNetwork.host[7] fwdDataBytesReceived:last 153276859
attr source sum(fwdDataBytesReceived)
attr title "Data Received, last"
attr unit byte
scalar OPSHeraldNetwork.host[7] appTotalDataCountReceived2:last 1621
attr source sum(appTotalDataCountReceived2)
scalar OPSHeraldNetwork.host[7] appTotalDataBytesReceived2:last 40685936
attr source sum(appTotalDataBytesReceived2)
scalar OPSHeraldNetwork.host[7] appTotalDataReceivedDelay2:mean 81981.149347168
attr source appTotalDataReceivedDelay2
scalar OPSHeraldNetwork.host[7] appNonLikedDataReceivedDelay2:mean 81243.373359611
attr source appNonLikedDataReceivedDelay2
scalar OPSHeraldNetwork.host[7] appLikedDataReceivedDelay2:mean 84341.65024
attr source appLikedDataReceivedDelay2
scalar OPSHeraldNetwork.host[7] appTotalDataAvgHopCount:last 16.099938309685
attr source sum(appTotalDataHopsForAvgHopsComp)/sum(appTotalDataHopsCountForAvgHopsComp)
scalar OPSHeraldNetwork.host[7] appNonLikedDataAvgHopCount:last 15.865587044534
attr source sum(appNonLikedDataHopsForAvgHopsComp)/sum(appNonLikedDataHopsCountForAvgHopsComp)
scalar OPSHeraldNetwork.host[7] appLikedDataAvgHopCount:last 16.849740932642
attr source sum(appLikedDataHopsForAvgHopsComp)/sum(appLikedDataHopsCountForAvgHopsComp)
scalar OPSHeraldNetwork.host[7] appTotalDataDeliveryRatio:last 0.42579458891516
attr source sum(appTotalDataCountReceivedForRatioComp)/sum(appTotalDataCountMaxReceivableForRatioComp)
scalar OPSHeraldNetwork.host[7] appNonLikedDataDeliveryRatio:last 0.43363764044944
attr source sum(appNonLikedDataCountReceivedForRatioComp)/sum(appNonLikedDataCountMaxReceivableForRatioComp)
scalar OPSHeraldNetwork.host[7] appLikedDataDeliveryRatio:last 0.40250260688217
attr source sum(appLikedDataCountReceivedForRatioComp)/sum(appLikedDataCountMaxReceivableForRatioComp)
scalar OPSHeraldNetwork.host[7] appTotalDataReceivedAvgDelay:last 81981.149347168
attr source sum(appTotalDataReceivedDelay)/sum(appTotalDataCountReceivedForAvgDelayComp)
scalar OPSHeraldNetwork.host[7] appNonLikedDataReceivedAvgDelay:last 81243.373359611
attr source sum(appNonLikedDataReceivedDelay)/sum(appNonLikedDataCountReceivedForAvgDelayComp)
scalar OPSHeraldNetwork.host[7] appLikedDataReceivedAvgDelay:last 84341.65024
attr source sum(appLikedDataReceivedDelay)/sum(appLikedDataCountReceivedForAvgDelayComp)
scalar OPSHeraldNetwork.host[7] appTotalDataCountMaxReceivable:last 3807
attr source sum(appTotalDataCountMaxReceivable)
scalar OPSHeraldNetwork.host[7] appNonLikedDataCountMaxReceivable:last 2848
attr source sum(appNonLikedDataCountMaxReceivable)
scalar OPSHeraldNetwork.host[7] appLikedDataCountMaxReceivable:last 959
attr source sum(appLikedDataCountMaxReceivable)
scalar OPSHeraldNetwork.host[7] appTotalDataBytesMaxReceivable:last 95186978
attr source sum(appTotalDataBytesMaxReceivable)
scalar OPSHeraldNetwork.host[7] appNonLikedDataBytesMaxReceivable:last 70882867
attr source sum(appNonLikedDataBytesMaxReceivable)
scalar OPSHeraldNetwork.host[7] appLikedDataBytesMaxReceivable:last 24304111
attr source sum(appLikedDataBytesMaxReceivable)
scalar OPSHeraldNetwork.host[7] appTotalDataCountReceived:last 5923
attr source sum(appTotalDataCountReceived)
scalar OPSHeraldNetwork.host[7] appDuplicateDataCountReceived:last 4302
attr source sum(appDuplicateDataCountReceived)
scalar OPSHeraldNetwork.host[7] appNonLikedDataCountReceived:last 1235
attr source sum(appNonLikedDataCountReceived)
scalar OPSHeraldNetwork.host[7] appLikedDataCountReceived:last 386
attr source sum(appLikedDataCountReceived)
scalar OPSHeraldNetwork.host[7] appTotalDataBytesReceived:last 153128784
attr source sum(appTotalDataBytesReceived)
scalar OPSHeraldNetwork.host[7] appDuplicateDataBytesReceived:last 112442848
attr source sum(appDuplicateDataBytesReceived)
scalar OPSHeraldNetwork.host[7] appNonLikedDataBytesReceived:last 30719354
attr source sum(appNonLikedDataBytesReceived)
scalar OPSHeraldNetwork.host[7] appLikedDataBytesReceived:last 9966582
attr source sum(appLikedDataBytesReceived)
scalar OPSHeraldNetwork.host[8] linkSimpleNeighbourSize:mean 0.730348
attr source linkSimpleNeighSize
attr title "Simple Neighbour Size, mean"
scalar OPSHeraldNetwork.host[8] linkContactCount:last 252
attr source sum(linkContactCount)
attr title "Contact Count, last"
scalar OPSHeraldNetwork.host[8] linkAvgContactDuration:last 534.20238095238
attr source sum(linkContactDuration)/sum(linkContactDurationCount)
attr title "Average Contact Duration, last"
attr unit s
scalar OPSHeraldNetwork.host[8] linkAvgNeighbourSize:last 0.730348
attr source sum(linkNeighSize)/sum(linkNeighSizeCount)
attr title "Average Neighbour Size, last"
scalar OPSHeraldNetwork.host[8] fwdTotalBytesSent:last 697389082
attr source sum(fwdTotalBytesSent)
attr title "Total Sent, last"
attr unit byte
scalar OPSHeraldNetwork.host[8] fwdDPTableDataBytesSent:last -nan
attr source sum(fwdDPTableDataBytesSent)
attr title "DP Table Data Sent, last"
attr unit byte
scalar OPSHeraldNetwork.host[8] fwdDPTableRequestBytesSent:last -nan
attr source sum(fwdDPTableRequestBytesSent)
attr title "DP Table Requests Sent, last"
attr unit byte
scalar OPSHeraldNetwork.host[8] fwdDataReqBytesSent:last -nan
attr source sum(fwdDataReqBytesSent)
attr title "Data Requests Sent, last"
attr unit byte
scalar OPSHeraldNetwork.host[8] fwdSumVecBytesSent:last -nan
attr source sum(fwdSumVecBytesSent)
attr title "Summary Vectors Sent, last"
attr unit byte
scalar OPSHeraldNetwork.host[8] fwdDataBytesSent:last 697389082
attr source sum(fwdDataBytesSent)
attr title "Data Sent, last"
attr unit byte
scalar OPSHeraldNetwork.host[8] fwdCurrentCacheSizeBytes2:last 49800897
attr source fwdCurrentCacheSizeBytes2
attr title "Cache Size, last"
attr unit byte
scalar OPSHeraldNetwork.host[8] fwdCurrentCacheSizeBytes2:mean 29085264.638013
attr source fwdCurrentCacheSizeBytes2
attr title "Cache Size, mean"
attr unit byte
scalar OPSHeraldNetwork.host[8] fwdCurrentCacheSizeBytesPeriodic:last 49800897
attr source fwdCurrentCacheSizeBytesPeriodic
attr title "Periodic Cache Size, last"
attr unit byte
scalar OPSHeraldNetwork.host[8] fwdCurrentCacheSizeBytesPeriodic:mean 21676697.1072
attr source fwdCurrentCacheSizeBytesPeriodic
attr title "Periodic Cache Size, mean"
attr unit byte
scalar OPSHeraldNetwork.host[8] fwdCurrentCacheSizeBytesAvg:last 29085264.638013
attr source sum(fwdCurrentCacheSizeBytes)/sum(fwdCurrentCacheSizeReportedCount)
attr title "Average Cache Size, last"
attr unit byte
scalar OPSHeraldNetwork.host[8] fwdCacheBytesUpdated:last 294983266
attr source sum(fwdCacheBytesUpdated)
attr title "Cache Updates, last"
attr unit byte
scalar OPSHeraldNetwork.host[8] fwdCacheBytesAdded:last 49800897
attr source sum(fwdCacheBytesAdded)
attr title "Cache Additions, last"
attr unit byte
scalar OPSHeraldNetwork.host[8] fwdCacheBytesRemoved:last -nan
attr source sum(fwdCacheBytesRemoved)
attr title "Cache Removals, last"
attr unit byte
scalar OPSHeraldNetwork.host[8] fwdAvgHopsTravelled:last 26.44428656895
attr source sum(fwdHopsTravelled)/sum(fwdHopsTravelledCount)
attr title "Average Hops Travelled, last"
scalar OPSHeraldNetwork.host[8] fwdTotalBytesReceived:last 344677279
attr source sum(fwdTotalBytesReceived)
attr title "Total Received, last"
attr unit byte
scalar OPSHeraldNetwork.host[8] fwdDPTableDataBytesReceived:last -nan
attr source sum(fwdDPTableDataBytesReceived)
attr title "DP Table Data Received, last"
attr unit byte
scalar OPSHeraldNetwork.host[8] fwdDPTableRequestBytesReceived:last -nan
attr source sum(fwdDPTableRequestBytesReceived)
attr title "DP Table Requests Received, last"
attr unit byte
scalar OPSHeraldNetwork.host[8] fwdDataReqBytesReceived:last -nan
attr source sum(fwdDataReqBytesReceived)
attr title "Data Requests Received, last"
attr unit byte
scalar OPSHeraldNetwork.host[8] fwdSumVecBytesReceived:last -nan
attr source sum(fwdSumVecBytesReceived)
attr title "Summary Vectors Received, last"
attr unit byte
scalar OPSHeraldNetwork.host[8] fwdDataBytesReceived:last 344677279
attr source sum(fwdDataBytesReceived)
attr title "Data Received, last"
attr unit byte
scalar OPSHeraldNetwork.host[8] appTotalDataCountReceived2:last 1966
attr source sum(appTotalDataCountReceived2)
scalar OPSHeraldNetwork.host[8] appTotalDataBytesReceived2:last 49359713
attr source sum(appTotalDataBytesReceived2)
scalar OPSHeraldNetwork.host[8] appTotalDataReceivedDelay2:mean 62063.907744415
attr source appTotalDataReceivedDelay2
scalar OPSHeraldNetwork.host[8] appNonLikedDataReceivedDelay2:mean 62023.042319515
attr source appNonLikedDataReceivedDelay2
scalar OPSHeraldNetwork.host[8] appLikedDataReceivedDelay2:mean 62189.380674286
attr source appLikedDataReceivedDelay2
scalar OPSHeraldNetwork.host[8] appTotalDataAvgHopCount:last 14.099694811801
attr source sum(appTotalDataHopsForAvgHopsComp)/sum(appTotalDataHopsCountForAvgHopsComp)
scalar OPSHeraldNetwork.host[8] appNonLikedDataAvgHopCount:last 13.897505057316
attr source sum(appNonLikedDataHopsForAvgHopsComp)/sum(appNonLikedDataHopsCountForAvgHopsComp)
scalar OPSHeraldNetwork.host[8] appLikedDataAvgHopCount:last 14.72049689441
attr source sum(appLikedDataHopsForAvgHopsComp)/sum(appLikedDataHopsCountForAvgHopsComp)
scalar OPSHeraldNetwork.host[8] appTotalDataDeliveryRatio:last 0.51465968586387
attr source sum(appTotalDataCountReceivedForRatioComp)/sum(appTotalDataCountMaxReceivableForRatioComp)
scalar OPSHeraldNetwork.host[8] appNonLikedDataDeliveryRatio:last 0.51943957968476
attr source sum(appNonLikedDataCountReceivedForRatioComp)/sum(appNonLikedDataCountMaxReceivableForRatioComp)
scalar OPSHeraldNetwork.host[8] appLikedDataDeliveryRatio:last 0.50051813471503
attr source sum(appLikedDataCountReceivedForRatioComp)/sum(appLikedDataCountMaxReceivableForRatioComp)
scalar OPSHeraldNetwork.host[8] appTotalDataReceivedAvgDelay:last 62063.907744415
attr source sum(appTotalDataReceivedDelay)/sum(appTotalDataCountReceivedForAvgDelayComp)
scalar OPSHeraldNetwork.host[8] appNonLikedDataReceivedAvgDelay:last 62023.042319515
attr source sum(appNonLikedDataReceivedDelay)/sum(appNonLikedDataCountReceivedForAvgDelayComp)
scalar OPSHeraldNetwork.host[8] appLikedDataReceivedAvgDelay:last 62189.380674286
attr source sum(appLikedDataReceivedDelay)/sum(appLikedDataCountReceivedForAvgDelayComp)
scalar OPSHeraldNetwork.host[8] appTotalDataCountMaxReceivable:last 3820
attr source sum(appTotalDataCountMaxReceivable)
scalar OPSHeraldNetwork.host[8] appNonLikedDataCountMaxReceivable:last 2855
attr source sum(appNonLikedDataCountMaxReceivable)
scalar OPSHeraldNetwork.host[8] appLikedDataCountMaxReceivable:last 965
attr source sum(appLikedDataCountMaxReceivable)
scalar OPSHeraldNetwork.host[8] appTotalDataBytesMaxReceivable:last 95427751
attr source sum(appTotalDataBytesMaxReceivable)
scalar OPSHeraldNetwork.host[8] appNonLikedDataBytesMaxReceivable:last 71014340
attr source sum(appNonLikedDataBytesMaxReceivable)
scalar OPSHeraldNetwork.host[8] appLikedDataBytesMaxReceivable:last 24413411
attr source sum(appLikedDataBytesMaxReceivable)
scalar OPSHeraldNetwork.host[8] appTotalDataCountReceived:last 13372
attr source sum(appTotalDataCountReceived)
scalar OPSHeraldNetwork.host[8] appDuplicateDataCountReceived:last 11406
attr source sum(appDuplicateDataCountReceived)
scalar OPSHeraldNetwork.host[8] appNonLikedDataCountReceived:last 1483
attr source sum(appNonLikedDataCountReceived)
scalar OPSHeraldNetwork.host[8] appLikedDataCountReceived:last 483
attr source sum(appLikedDataCountReceived)
scalar OPSHeraldNetwork.host[8] appTotalDataBytesReceived:last 344342979
attr source sum(appTotalDataBytesReceived)
scalar OPSHeraldNetwork.host[8] appDuplicateDataBytesReceived:last 294983266
attr source sum(appDuplicateDataBytesReceived)
scalar OPSHeraldNetwork.host[8] appNonLikedDataBytesReceived:last 36964945
attr source sum(appNonLikedDataBytesReceived)
scalar OPSHeraldNetwork.host[8] appLikedDataBytesReceived:last 12394768
attr source sum(appLikedDataBytesReceived)
scalar OPSHeraldNetwork.host[9] linkSimpleNeighbourSize:mean 2.06802
attr source linkSimpleNeighSize
attr title "Simple Neighbour Size, mean"
scalar OPSHeraldNetwork.host[9] linkContactCount:last 26
attr source sum(linkContactCount)
attr title "Contact Count, last"
scalar OPSHeraldNetwork.host[9] linkAvgContactDuration:last 6724.1538461538
attr source sum(linkContactDuration)/sum(linkContactDurationCount)
attr title "Average Contact Duration, last"
attr unit s
scalar OPSHeraldNetwork.host[9] linkAvgNeighbourSize:last 2.06802
attr source sum(linkNeighSize)/sum(linkNeighSizeCount)
attr title "Average Neighbour Size, last"
scalar OPSHeraldNetwork.host[9] fwdTotalBytesSent:last 925005604
attr source sum(fwdTotalBytesSent)
attr title "Total Sent, last"
attr unit byte
scalar OPSHeraldNetwork.host[9] fwdDPTableDataBytesSent:last -nan
attr source sum(fwdDPTableDataBytesSent)
attr title "DP Table Data Sent, last"
attr unit byte
scalar OPSHeraldNetwork.host[9] fwdDPTableRequestBytesSent:last -nan
attr source sum(fwdDPTableRequestBytesSent)
attr title "DP Table Requests Sent, last"
attr unit byte
scalar OPSHeraldNetwork.host[9] fwdDataReqBytesSent:last -nan
attr source sum(fwdDataReqBytesSent)
attr title "Data Requests Sent, last"
attr unit byte
scalar OPSHeraldNetwork.host[9] fwdSumVecBytesSent:last -nan
attr source sum(fwdSumVecBytesSent)
attr title "Summary Vectors Sent, last"
attr unit byte
scalar OPSHeraldNetwork.host[9] fwdDataBytesSent:last 925005604
attr source sum(fwdDataBytesSent)
attr title "Data Sent, last"
attr unit byte
scalar OPSHeraldNetwork.host[9] fwdCurrentCacheSizeBytes2:last 55016887
attr source fwdCurrentCacheSizeBytes2
attr title "Cache Size, last"
attr unit byte
scalar OPSHeraldNetwork.host[9] fwdCurrentCacheSizeBytes2:mean 33341562.734669
attr source fwdCurrentCacheSizeBytes2
attr title "Cache Size, mean"
attr unit byte
scalar OPSHeraldNetwork.host[9] fwdCurrentCacheSizeBytesPeriodic:last 55016887
attr source fwdCurrentCacheSizeBytesPeriodic
attr title "Periodic Cache Size, last"
attr unit byte
scalar OPSHeraldNetwork.host[9] fwdCurrentCacheSizeBytesPeriodic:mean 24362851.95
attr source fwdCurrentCacheSizeBytesPeriodic
attr title "Periodic Cache Size, mean"
attr unit byte
scalar OPSHeraldNetwork.host[9] fwdCurrentCacheSizeBytesAvg:last 33341562.734669
attr source sum(fwdCurrentCacheSizeBytes)/sum(fwdCurrentCacheSizeReportedCount)
attr title "Average Cache Size, last"
attr unit byte
scalar OPSHeraldNetwork.host[9] fwdCacheBytesUpdated:last 1111554675
attr source sum(fwdCacheBytesUpdated)
attr title "Cache Updates, last"
attr unit byte
scalar OPSHeraldNetwork.host[9] fwdCacheBytesAdded:last 55016887
attr source sum(fwdCacheBytesAdded)
attr title "Cache Additions, last"
attr unit byte
scalar OPSHeraldNetwork.host[9] fwdCacheBytesRemoved:last -nan
attr source sum(fwdCacheBytesRemoved)
attr title "Cache Removals, last"
attr unit byte
scalar OPSHeraldNetwork.host[9] fwdAvgHopsTravelled:last 26.801225668496
attr source sum(fwdHopsTravelled)/sum(fwdHopsTravelledCount)
attr title "Average Hops Travelled, last"
scalar OPSHeraldNetwork.host[9] fwdTotalBytesReceived:last 1167385664
attr source sum(fwdTotalBytesReceived)
attr title "Total Received, last"
attr unit byte
scalar OPSHeraldNetwork.host[9] fwdDPTableDataBytesReceived:last -nan
attr source sum(fwdDPTableDataBytesReceived)
attr title "DP Table Data Received, last"
attr unit byte
scalar OPSHeraldNetwork.host[9] fwdDPTableRequestBytesReceived:last -nan
attr source sum(fwdDPTableRequestBytesReceived)
attr title "DP Table Requests Received, last"
attr unit byte
scalar OPSHeraldNetwork.host[9] fwdDataReqBytesReceived:last -nan
attr source sum(fwdDataReqBytesReceived)
attr title "Data Requests Received, last"
attr unit byte
scalar OPSHeraldNetwork.host[9] fwdSumVecBytesReceived:last -nan
attr source sum(fwdSumVecBytesReceived)
attr title "Summary Vectors Received, last"
attr unit byte
scalar OPSHeraldNetwork.host[9] fwdDataBytesReceived:last 1167385664
attr source sum(fwdDataBytesReceived)
attr title "Data Received, last"
attr unit byte
scalar OPSHeraldNetwork.host[9] appTotalDataCountReceived2:last 2176
attr source sum(appTotalDataCountReceived2)
scalar OPSHeraldNetwork.host[9] appTotalDataBytesReceived2:last 54696914
attr source sum(appTotalDataBytesReceived2)
scalar OPSHeraldNetwork.host[9] appTotalDataReceivedDelay2:mean 54927.272651838
attr source appTotalDataReceivedDelay2
scalar OPSHeraldNetwork.host[9] appNonLikedDataReceivedDelay2:mean 54253.445566912
attr source appNonLikedDataReceivedDelay2
scalar OPSHeraldNetwork.host[9] appLikedDataReceivedDelay2:mean 56948.753906618
attr source appLikedDataReceivedDelay2
scalar OPSHeraldNetwork.host[9] appTotalDataAvgHopCount:last 12.731617647059
attr source sum(appTotalDataHopsForAvgHopsComp)/sum(appTotalDataHopsCountForAvgHopsComp)
scalar OPSHeraldNetwork.host[9] appNonLikedDataAvgHopCount:last 12.534926470588
attr source sum(appNonLikedDataHopsForAvgHopsComp)/sum(appNonLikedDataHopsCountForAvgHopsComp)
scalar OPSHeraldNetwork.host[9] appLikedDataAvgHopCount:last 13.321691176471
attr source sum(appLikedDataHopsForAvgHopsComp)/sum(appLikedDataHopsCountForAvgHopsComp)
scalar OPSHeraldNetwork.host[9] appTotalDataDeliveryRatio:last 0.5696335078534
attr source sum(appTotalDataCountReceivedForRatioComp)/sum(appTotalDataCountMaxReceivableForRatioComp)
scalar OPSHeraldNetwork.host[9] appNonLikedDataDeliveryRatio:last 0.57122856142807
attr source sum(appNonLikedDataCountReceivedForRatioComp)/sum(appNonLikedDataCountMaxReceivableForRatioComp)
scalar OPSHeraldNetwork.host[9] appLikedDataDeliveryRatio:last 0.56490134994808
attr source sum(appLikedDataCountReceivedForRatioComp)/sum(appLikedDataCountMaxReceivableForRatioComp)
scalar OPSHeraldNetwork.host[9] appTotalDataReceivedAvgDelay:last 54927.272651838
attr source sum(appTotalDataReceivedDelay)/sum(appTotalDataCountReceivedForAvgDelayComp)
scalar OPSHeraldNetwork.host[9] appNonLikedDataReceivedAvgDelay:last 54253.445566912
attr source sum(appNonLikedDataReceivedDelay)/sum(appNonLikedDataCountReceivedForAvgDelayComp)
scalar OPSHeraldNetwork.host[9] appLikedDataReceivedAvgDelay:last 56948.753906618
attr source sum(appLikedDataReceivedDelay)/sum(appLikedDataCountReceivedForAvgDelayComp)
scalar OPSHeraldNetwork.host[9] appTotalDataCountMaxReceivable:last 3820
attr source sum(appTotalDataCountMaxReceivable)
scalar OPSHeraldNetwork.host[9] appNonLikedDataCountMaxReceivable:last 2857
attr source sum(appNonLikedDataCountMaxReceivable)
scalar OPSHeraldNetwork.host[9] appLikedDataCountMaxReceivable:last 963
attr source sum(appLikedDataCountMaxReceivable)
scalar OPSHeraldNetwork.host[9] appTotalDataBytesMaxReceivable:last 95548962
attr source sum(appTotalDataBytesMaxReceivable)
scalar OPSHeraldNetwork.host[9] appNonLikedDataBytesMaxReceivable:last 71172130
attr source sum(appNonLikedDataBytesMaxReceivable)
scalar OPSHeraldNetwork.host[9] appLikedDataBytesMaxReceivable:last 24376832
attr source sum(appLikedDataBytesMaxReceivable)
scalar OPSHeraldNetwork.host[9] appTotalDataCountReceived:last 45363
attr source sum(appTotalDataCountReceived)
scalar OPSHeraldNetwork.host[9] appDuplicateDataCountReceived:last 43187
attr source sum(appDuplicateDataCountReceived)
scalar OPSHeraldNetwork.host[9] appNonLikedDataCountReceived:last 1632
attr source sum(appNonLikedDataCountReceived)
scalar OPSHeraldNetwork.host[9] appLikedDataCountReceived:last 544
attr source sum(appLikedDataCountReceived)
[...]
attr source sum(fwdDPTableRequestBytesReceived)
attr title "DP Table Requests Received, last"
attr unit byte
scalar OPSHeraldNetwork.host[96] fwdDataReqBytesReceived:last -nan
attr source sum(fwdDataReqBytesReceived)
attr title "Data Requests Received, last"
attr unit byte
scalar OPSHeraldNetwork.host[96] fwdSumVecBytesReceived:last -nan
attr source sum(fwdSumVecBytesReceived)
attr title "Summary Vectors Received, last"
attr unit byte
scalar OPSHeraldNetwork.host[96] fwdDataBytesReceived:last 60071531
attr source sum(fwdDataBytesReceived)
attr title "Data Received, last"
attr unit byte
scalar OPSHeraldNetwork.host[96] appTotalDataCountReceived2:last 1104
attr source sum(appTotalDataCountReceived2)
scalar OPSHeraldNetwork.host[96] appTotalDataBytesReceived2:last 27791548
attr source sum(appTotalDataBytesReceived2)
scalar OPSHeraldNetwork.host[96] appTotalDataReceivedDelay2:mean 122276.68527623
attr source appTotalDataReceivedDelay2
scalar OPSHeraldNetwork.host[96] appNonLikedDataReceivedDelay2:mean 121398.54298962
attr source appNonLikedDataReceivedDelay2
scalar OPSHeraldNetwork.host[96] appLikedDataReceivedDelay2:mean 124824.22880028
attr source appLikedDataReceivedDelay2
scalar OPSHeraldNetwork.host[96] appTotalDataAvgHopCount:last 21.365036231884
attr source sum(appTotalDataHopsForAvgHopsComp)/sum(appTotalDataHopsCountForAvgHopsComp)
scalar OPSHeraldNetwork.host[96] appNonLikedDataAvgHopCount:last 20.961023142509
attr source sum(appNonLikedDataHopsForAvgHopsComp)/sum(appNonLikedDataHopsCountForAvgHopsComp)
scalar OPSHeraldNetwork.host[96] appLikedDataAvgHopCount:last 22.537102473498
attr source sum(appLikedDataHopsForAvgHopsComp)/sum(appLikedDataHopsCountForAvgHopsComp)
scalar OPSHeraldNetwork.host[96] appTotalDataDeliveryRatio:last 0.29098576700053
attr source sum(appTotalDataCountReceivedForRatioComp)/sum(appTotalDataCountMaxReceivableForRatioComp)
scalar OPSHeraldNetwork.host[96] appNonLikedDataDeliveryRatio:last 0.2894922425952
attr source sum(appNonLikedDataCountReceivedForRatioComp)/sum(appNonLikedDataCountMaxReceivableForRatioComp)
scalar OPSHeraldNetwork.host[96] appLikedDataDeliveryRatio:last 0.29540709812109
attr source sum(appLikedDataCountReceivedForRatioComp)/sum(appLikedDataCountMaxReceivableForRatioComp)
scalar OPSHeraldNetwork.host[96] appTotalDataReceivedAvgDelay:last 122276.68527623
attr source sum(appTotalDataReceivedDelay)/sum(appTotalDataCountReceivedForAvgDelayComp)
scalar OPSHeraldNetwork.host[96] appNonLikedDataReceivedAvgDelay:last 121398.54298962
attr source sum(appNonLikedDataReceivedDelay)/sum(appNonLikedDataCountReceivedForAvgDelayComp)
scalar OPSHeraldNetwork.host[96] appLikedDataReceivedAvgDelay:last 124824.22880028
attr source sum(appLikedDataReceivedDelay)/sum(appLikedDataCountReceivedForAvgDelayComp)
scalar OPSHeraldNetwork.host[96] appTotalDataCountMaxReceivable:last 3794
attr source sum(appTotalDataCountMaxReceivable)
scalar OPSHeraldNetwork.host[96] appNonLikedDataCountMaxReceivable:last 2836
attr source sum(appNonLikedDataCountMaxReceivable)
scalar OPSHeraldNetwork.host[96] appLikedDataCountMaxReceivable:last 958
attr source sum(appLikedDataCountMaxReceivable)
scalar OPSHeraldNetwork.host[96] appTotalDataBytesMaxReceivable:last 94590733
attr source sum(appTotalDataBytesMaxReceivable)
scalar OPSHeraldNetwork.host[96] appNonLikedDataBytesMaxReceivable:last 70467791
attr source sum(appNonLikedDataBytesMaxReceivable)
scalar OPSHeraldNetwork.host[96] appLikedDataBytesMaxReceivable:last 24122942
attr source sum(appLikedDataBytesMaxReceivable)
scalar OPSHeraldNetwork.host[96] appTotalDataCountReceived:last 2354
attr source sum(appTotalDataCountReceived)
scalar OPSHeraldNetwork.host[96] appDuplicateDataCountReceived:last 1250
attr source sum(appDuplicateDataCountReceived)
scalar OPSHeraldNetwork.host[96] appNonLikedDataCountReceived:last 821
attr source sum(appNonLikedDataCountReceived)
scalar OPSHeraldNetwork.host[96] appLikedDataCountReceived:last 283
attr source sum(appLikedDataCountReceived)
scalar OPSHeraldNetwork.host[96] appTotalDataBytesReceived:last 60012681
attr source sum(appTotalDataBytesReceived)
scalar OPSHeraldNetwork.host[96] appDuplicateDataBytesReceived:last 32221133
attr source sum(appDuplicateDataBytesReceived)
scalar OPSHeraldNetwork.host[96] appNonLikedDataBytesReceived:last 20515020
attr source sum(appNonLikedDataBytesReceived)
scalar OPSHeraldNetwork.host[96] appLikedDataBytesReceived:last 7276528
attr source sum(appLikedDataBytesReceived)
scalar OPSHeraldNetwork.host[97] linkSimpleNeighbourSize:mean 0.629776
attr source linkSimpleNeighSize
attr title "Simple Neighbour Size, mean"
scalar OPSHeraldNetwork.host[97] linkContactCount:last 18
attr source sum(linkContactCount)
attr title "Contact Count, last"
scalar OPSHeraldNetwork.host[97] linkAvgContactDuration:last 2127.1111111111
attr source sum(linkContactDuration)/sum(linkContactDurationCount)
attr title "Average Contact Duration, last"
attr unit s
scalar OPSHeraldNetwork.host[97] linkAvgNeighbourSize:last 0.629776
attr source sum(linkNeighSize)/sum(linkNeighSizeCount)
attr title "Average Neighbour Size, last"
scalar OPSHeraldNetwork.host[97] fwdTotalBytesSent:last 201561878
attr source sum(fwdTotalBytesSent)
attr title "Total Sent, last"
attr unit byte
scalar OPSHeraldNetwork.host[97] fwdDPTableDataBytesSent:last -nan
attr source sum(fwdDPTableDataBytesSent)
attr title "DP Table Data Sent, last"
attr unit byte
scalar OPSHeraldNetwork.host[97] fwdDPTableRequestBytesSent:last -nan
attr source sum(fwdDPTableRequestBytesSent)
attr title "DP Table Requests Sent, last"
attr unit byte
scalar OPSHeraldNetwork.host[97] fwdDataReqBytesSent:last -nan
attr source sum(fwdDataReqBytesSent)
attr title "Data Requests Sent, last"
attr unit byte
scalar OPSHeraldNetwork.host[97] fwdSumVecBytesSent:last -nan
attr source sum(fwdSumVecBytesSent)
attr title "Summary Vectors Sent, last"
attr unit byte
scalar OPSHeraldNetwork.host[97] fwdDataBytesSent:last 201561878
attr source sum(fwdDataBytesSent)
attr title "Data Sent, last"
attr unit byte
scalar OPSHeraldNetwork.host[97] fwdCurrentCacheSizeBytes2:last 20271106
attr source fwdCurrentCacheSizeBytes2
attr title "Cache Size, last"
attr unit byte
scalar OPSHeraldNetwork.host[97] fwdCurrentCacheSizeBytes2:mean 10325470.03516
attr source fwdCurrentCacheSizeBytes2
attr title "Cache Size, mean"
attr unit byte
scalar OPSHeraldNetwork.host[97] fwdCurrentCacheSizeBytesPeriodic:last 20271106
attr source fwdCurrentCacheSizeBytesPeriodic
attr title "Periodic Cache Size, last"
attr unit byte
scalar OPSHeraldNetwork.host[97] fwdCurrentCacheSizeBytesPeriodic:mean 14604820.8108
attr source fwdCurrentCacheSizeBytesPeriodic
attr title "Periodic Cache Size, mean"
attr unit byte
scalar OPSHeraldNetwork.host[97] fwdCurrentCacheSizeBytesAvg:last 10325470.03516
attr source sum(fwdCurrentCacheSizeBytes)/sum(fwdCurrentCacheSizeReportedCount)
attr title "Average Cache Size, last"
attr unit byte
scalar OPSHeraldNetwork.host[97] fwdCacheBytesUpdated:last 229837408
attr source sum(fwdCacheBytesUpdated)
attr title "Cache Updates, last"
attr unit byte
scalar OPSHeraldNetwork.host[97] fwdCacheBytesAdded:last 20271106
attr source sum(fwdCacheBytesAdded)
attr title "Cache Additions, last"
attr unit byte
scalar OPSHeraldNetwork.host[97] fwdCacheBytesRemoved:last -nan
attr source sum(fwdCacheBytesRemoved)
attr title "Cache Removals, last"
attr unit byte
scalar OPSHeraldNetwork.host[97] fwdAvgHopsTravelled:last 29.33168160253
attr source sum(fwdHopsTravelled)/sum(fwdHopsTravelledCount)
attr title "Average Hops Travelled, last"
scalar OPSHeraldNetwork.host[97] fwdTotalBytesReceived:last 249280993
attr source sum(fwdTotalBytesReceived)
attr title "Total Received, last"
attr unit byte
scalar OPSHeraldNetwork.host[97] fwdDPTableDataBytesReceived:last -nan
attr source sum(fwdDPTableDataBytesReceived)
attr title "DP Table Data Received, last"
attr unit byte
scalar OPSHeraldNetwork.host[97] fwdDPTableRequestBytesReceived:last -nan
attr source sum(fwdDPTableRequestBytesReceived)
attr title "DP Table Requests Received, last"
attr unit byte
scalar OPSHeraldNetwork.host[97] fwdDataReqBytesReceived:last -nan
attr source sum(fwdDataReqBytesReceived)
attr title "Data Requests Received, last"
attr unit byte
scalar OPSHeraldNetwork.host[97] fwdSumVecBytesReceived:last -nan
attr source sum(fwdSumVecBytesReceived)
attr title "Summary Vectors Received, last"
attr unit byte
scalar OPSHeraldNetwork.host[97] fwdDataBytesReceived:last 249280993
attr source sum(fwdDataBytesReceived)
attr title "Data Received, last"
attr unit byte
scalar OPSHeraldNetwork.host[97] appTotalDataCountReceived2:last 740
attr source sum(appTotalDataCountReceived2)
scalar OPSHeraldNetwork.host[97] appTotalDataBytesReceived2:last 19206460
attr source sum(appTotalDataBytesReceived2)
scalar OPSHeraldNetwork.host[97] appTotalDataReceivedDelay2:mean 20188.05532973
attr source appTotalDataReceivedDelay2
scalar OPSHeraldNetwork.host[97] appNonLikedDataReceivedDelay2:mean 19733.957365333
attr source appNonLikedDataReceivedDelay2
scalar OPSHeraldNetwork.host[97] appLikedDataReceivedDelay2:mean 21710.619092706
attr source appLikedDataReceivedDelay2
scalar OPSHeraldNetwork.host[97] appTotalDataAvgHopCount:last 13.758108108108
attr source sum(appTotalDataHopsForAvgHopsComp)/sum(appTotalDataHopsCountForAvgHopsComp)
scalar OPSHeraldNetwork.host[97] appNonLikedDataAvgHopCount:last 13.363157894737
attr source sum(appNonLikedDataHopsForAvgHopsComp)/sum(appNonLikedDataHopsCountForAvgHopsComp)
scalar OPSHeraldNetwork.host[97] appLikedDataAvgHopCount:last 15.082352941176
attr source sum(appLikedDataHopsForAvgHopsComp)/sum(appLikedDataHopsCountForAvgHopsComp)
scalar OPSHeraldNetwork.host[97] appTotalDataDeliveryRatio:last 0.19499341238472
attr source sum(appTotalDataCountReceivedForRatioComp)/sum(appTotalDataCountMaxReceivableForRatioComp)
scalar OPSHeraldNetwork.host[97] appNonLikedDataDeliveryRatio:last 0.20056298381422
attr source sum(appNonLikedDataCountReceivedForRatioComp)/sum(appNonLikedDataCountMaxReceivableForRatioComp)
scalar OPSHeraldNetwork.host[97] appLikedDataDeliveryRatio:last 0.17838405036726
attr source sum(appLikedDataCountReceivedForRatioComp)/sum(appLikedDataCountMaxReceivableForRatioComp)
scalar OPSHeraldNetwork.host[97] appTotalDataReceivedAvgDelay:last 20188.05532973
attr source sum(appTotalDataReceivedDelay)/sum(appTotalDataCountReceivedForAvgDelayComp)
scalar OPSHeraldNetwork.host[97] appNonLikedDataReceivedAvgDelay:last 19733.957365333
attr source sum(appNonLikedDataReceivedDelay)/sum(appNonLikedDataCountReceivedForAvgDelayComp)
scalar OPSHeraldNetwork.host[97] appLikedDataReceivedAvgDelay:last 21710.619092706
attr source sum(appLikedDataReceivedDelay)/sum(appLikedDataCountReceivedForAvgDelayComp)
scalar OPSHeraldNetwork.host[97] appTotalDataCountMaxReceivable:last 3795
attr source sum(appTotalDataCountMaxReceivable)
scalar OPSHeraldNetwork.host[97] appNonLikedDataCountMaxReceivable:last 2842
attr source sum(appNonLikedDataCountMaxReceivable)
scalar OPSHeraldNetwork.host[97] appLikedDataCountMaxReceivable:last 953
attr source sum(appLikedDataCountMaxReceivable)
scalar OPSHeraldNetwork.host[97] appTotalDataBytesMaxReceivable:last 94804289
attr source sum(appTotalDataBytesMaxReceivable)
scalar OPSHeraldNetwork.host[97] appNonLikedDataBytesMaxReceivable:last 70734101
attr source sum(appNonLikedDataBytesMaxReceivable)
scalar OPSHeraldNetwork.host[97] appLikedDataBytesMaxReceivable:last 24070188
attr source sum(appLikedDataBytesMaxReceivable)
scalar OPSHeraldNetwork.host[97] appTotalDataCountReceived:last 9485
attr source sum(appTotalDataCountReceived)
scalar OPSHeraldNetwork.host[97] appDuplicateDataCountReceived:last 8745
attr source sum(appDuplicateDataCountReceived)
scalar OPSHeraldNetwork.host[97] appNonLikedDataCountReceived:last 570
attr source sum(appNonLikedDataCountReceived)
scalar OPSHeraldNetwork.host[97] appLikedDataCountReceived:last 170
attr source sum(appLikedDataCountReceived)
scalar OPSHeraldNetwork.host[97] appTotalDataBytesReceived:last 249043868
attr source sum(appTotalDataBytesReceived)
scalar OPSHeraldNetwork.host[97] appDuplicateDataBytesReceived:last 229837408
attr source sum(appDuplicateDataBytesReceived)
scalar OPSHeraldNetwork.host[97] appNonLikedDataBytesReceived:last 14635358
attr source sum(appNonLikedDataBytesReceived)
scalar OPSHeraldNetwork.host[97] appLikedDataBytesReceived:last 4571102
attr source sum(appLikedDataBytesReceived)
scalar OPSHeraldNetwork linkSimpleNeighbourSize:mean 1.0356204897959
attr source linkSimpleNeighSize
attr title "Simple Neighbour Size, mean"
scalar OPSHeraldNetwork linkContactCount:last 10054
attr source sum(linkContactCount)
attr title "Contact Count, last"
scalar OPSHeraldNetwork linkAvgContactDuration:last 1050.3012731251
attr source sum(linkContactDuration)/sum(linkContactDurationCount)
attr title "Average Contact Duration, last"
attr unit s
scalar OPSHeraldNetwork linkAvgNeighbourSize:last 1.0356204897959
attr source sum(linkNeighSize)/sum(linkNeighSizeCount)
attr title "Average Neighbour Size, last"
scalar OPSHeraldNetwork fwdTotalBytesSent:last 55052901978
attr source sum(fwdTotalBytesSent)
attr title "Total Sent, last"
attr unit byte
scalar OPSHeraldNetwork fwdDPTableDataBytesSent:last -nan
attr source sum(fwdDPTableDataBytesSent)
attr title "DP Table Data Sent, last"
attr unit byte
scalar OPSHeraldNetwork fwdDPTableRequestBytesSent:last -nan
attr source sum(fwdDPTableRequestBytesSent)
attr title "DP Table Requests Sent, last"
attr unit byte
scalar OPSHeraldNetwork fwdDataReqBytesSent:last -nan
attr source sum(fwdDataReqBytesSent)
attr title "Data Requests Sent, last"
attr unit byte
scalar OPSHeraldNetwork fwdSumVecBytesSent:last -nan
attr source sum(fwdSumVecBytesSent)
attr title "Summary Vectors Sent, last"
attr unit byte
scalar OPSHeraldNetwork fwdDataBytesSent:last 55052901978
attr source sum(fwdDataBytesSent)
attr title "Data Sent, last"
attr unit byte
scalar OPSHeraldNetwork fwdCurrentCacheSizeBytesAvg2:last 23029537.064552
attr source mean(fwdCurrentCacheSizeBytes2)
attr title "Average Cache Size, last"
attr unit byte
scalar OPSHeraldNetwork fwdCurrentCacheSizeBytesAvg2:mean 10083925.118478
attr source mean(fwdCurrentCacheSizeBytes2)
attr title "Average Cache Size, mean"
attr unit byte
scalar OPSHeraldNetwork fwdCurrentCacheSizeBytesPeriodicAvg:mean 19825204.829053
attr source periodicAverageForAllNodes(fwdCurrentCacheSizeBytesPeriodic)
attr title "Periodic Average Cache Size, mean"
attr unit byte
scalar OPSHeraldNetwork fwdCurrentCacheSizeBytesAvg:last 23029537.064552
attr source sum(fwdCurrentCacheSizeBytes)/sum(fwdCurrentCacheSizeReportedCount)
attr title "Average Cache Size, last"
attr unit byte
scalar OPSHeraldNetwork fwdCacheBytesUpdated:last 50299855335
attr source sum(fwdCacheBytesUpdated)
attr title "Cache Updates, last"
attr unit byte
scalar OPSHeraldNetwork fwdCacheBytesAdded:last 4388359626
attr source sum(fwdCacheBytesAdded)
attr title "Cache Additions, last"
attr unit byte
scalar OPSHeraldNetwork fwdCacheBytesRemoved:last -nan
attr source sum(fwdCacheBytesRemoved)
attr title "Cache Removals, last"
attr unit byte
scalar OPSHeraldNetwork fwdAvgHopsTravelled:last 33.216754778938
attr source sum(fwdHopsTravelled)/sum(fwdHopsTravelledCount)
attr title "Average Hops Travelled, last"
scalar OPSHeraldNetwork fwdTotalBytesReceived:last 54645578301
attr source sum(fwdTotalBytesReceived)
attr title "Total Received, last"
attr unit byte
scalar OPSHeraldNetwork fwdDPTableDataBytesReceived:last -nan
attr source sum(fwdDPTableDataBytesReceived)
attr title "DP Table Data Received, last"
attr unit byte
scalar OPSHeraldNetwork fwdDPTableRequestBytesReceived:last -nan
attr source sum(fwdDPTableRequestBytesReceived)
attr title "DP Table Requests Received, last"
attr unit byte
scalar OPSHeraldNetwork fwdDataReqBytesReceived:last -nan
attr source sum(fwdDataReqBytesReceived)
attr title "Data Requests Received, last"
attr unit byte
scalar OPSHeraldNetwork fwdSumVecBytesReceived:last -nan
attr source sum(fwdSumVecBytesReceived)
attr title "Summary Vectors Received, last"
attr unit byte
scalar OPSHeraldNetwork fwdDataBytesReceived:last 54645578301
attr source sum(fwdDataBytesReceived)
attr title "Data Received, last"
attr unit byte
scalar OPSHeraldNetwork appTotalDataCountReceived2:last 170794
attr source sum(appTotalDataCountReceived2)
scalar OPSHeraldNetwork appTotalDataBytesReceived2:last 4292490691
attr source sum(appTotalDataBytesReceived2)
scalar OPSHeraldNetwork appTotalDataReceivedDelay2:mean 61244.460836208
attr source appTotalDataReceivedDelay2
scalar OPSHeraldNetwork appNonLikedDataReceivedDelay2:mean 60922.130859022
attr source appNonLikedDataReceivedDelay2
scalar OPSHeraldNetwork appLikedDataReceivedDelay2:mean 62228.321717772
attr source appLikedDataReceivedDelay2
scalar OPSHeraldNetwork appTotalDataAvgHopCount:last 13.271806972142
attr source sum(appTotalDataHopsForAvgHopsComp)/sum(appTotalDataHopsCountForAvgHopsComp)
scalar OPSHeraldNetwork appNonLikedDataAvgHopCount:last 13.096597666483
attr source sum(appNonLikedDataHopsForAvgHopsComp)/sum(appNonLikedDataHopsCountForAvgHopsComp)
scalar OPSHeraldNetwork appLikedDataAvgHopCount:last 13.806605452345
attr source sum(appLikedDataHopsForAvgHopsComp)/sum(appLikedDataHopsCountForAvgHopsComp)
scalar OPSHeraldNetwork appTotalDataDeliveryRatio:last 0.45877094491869
attr source sum(appTotalDataCountReceivedForRatioComp)/sum(appTotalDataCountMaxReceivableForRatioComp)
scalar OPSHeraldNetwork appNonLikedDataDeliveryRatio:last 0.46211070799957
attr source sum(appNonLikedDataCountReceivedForRatioComp)/sum(appNonLikedDataCountMaxReceivableForRatioComp)
scalar OPSHeraldNetwork appLikedDataDeliveryRatio:last 0.44886896140411
attr source sum(appLikedDataCountReceivedForRatioComp)/sum(appLikedDataCountMaxReceivableForRatioComp)
scalar OPSHeraldNetwork appTotalDataReceivedAvgDelay:last 61244.460836208
attr source sum(appTotalDataReceivedDelay)/sum(appTotalDataCountReceivedForAvgDelayComp)
scalar OPSHeraldNetwork appNonLikedDataReceivedAvgDelay:last 60922.130859022
attr source sum(appNonLikedDataReceivedDelay)/sum(appNonLikedDataCountReceivedForAvgDelayComp)
scalar OPSHeraldNetwork appLikedDataReceivedAvgDelay:last 62228.321717772
attr source sum(appLikedDataReceivedDelay)/sum(appLikedDataCountReceivedForAvgDelayComp)
scalar OPSHeraldNetwork appTotalDataCountMaxReceivable:last 372286
attr source sum(appTotalDataCountMaxReceivable)
scalar OPSHeraldNetwork appNonLikedDataCountMaxReceivable:last 278390
attr source sum(appNonLikedDataCountMaxReceivable)
scalar OPSHeraldNetwork appLikedDataCountMaxReceivable:last 93896
attr source sum(appLikedDataCountMaxReceivable)
scalar OPSHeraldNetwork appTotalDataBytesMaxReceivable:last 9299286695
attr source sum(appTotalDataBytesMaxReceivable)
scalar OPSHeraldNetwork appNonLikedDataBytesMaxReceivable:last 6927565400
attr source sum(appNonLikedDataBytesMaxReceivable)
scalar OPSHeraldNetwork appLikedDataBytesMaxReceivable:last 2371721295
attr source sum(appLikedDataBytesMaxReceivable)
scalar OPSHeraldNetwork appTotalDataCountReceived:last 2129291
attr source sum(appTotalDataCountReceived)
scalar OPSHeraldNetwork appDuplicateDataCountReceived:last 1958497
attr source sum(appDuplicateDataCountReceived)
scalar OPSHeraldNetwork appNonLikedDataCountReceived:last 128647
attr source sum(appNonLikedDataCountReceived)
scalar OPSHeraldNetwork appLikedDataCountReceived:last 42147
attr source sum(appLikedDataCountReceived)
scalar OPSHeraldNetwork appTotalDataBytesReceived:last 54592346026
attr source sum(appTotalDataBytesReceived)
scalar OPSHeraldNetwork appDuplicateDataBytesReceived:last 50299855335
attr source sum(appDuplicateDataBytesReceived)
scalar OPSHeraldNetwork appNonLikedDataBytesReceived:last 3211766982
attr source sum(appNonLikedDataBytesReceived)
scalar OPSHeraldNetwork appLikedDataBytesReceived:last 1080723709
attr source sum(appLikedDataBytesReceived)

