version 2
run General-0-20210104-11:35:40-15827
attr configname General
attr datetime 20210104-11:35:40
attr experiment General
attr inifile omnetpp-herald-epidemic.ini
attr iterationvars ""
attr iterationvarsf ""
attr measurement ""
attr network OPSHeraldNetwork
attr processid 15827
attr repetition 0
attr replication #0
attr resultdir results/
attr runnumber 0
attr seedset 0
param **.numNodes 49
param **.app.dataGenerationInterval 1s
param **.app.dataSizeInBytes 10000
param **.app.popularityAssignmentPercentage 25
param **.app.usedRNG 1
param **.app.mode 0
param **.forwardingLayer "\"KOptimumDelayRoutingLayer\""
param **.link.neighbourScanInterval 1s
param **.mobilityType "\"BonnMotionMobility\""
param **.mobility.traceFile "\"all_traces.gpx.movements\""
param **.mobility.nodeId -1

scalar OPSHeraldNetwork.host[0].forwarding numEventsHandled 69264
scalar OPSHeraldNetwork.host[0] linkSimpleNeighbourSize:mean 0.24392526455026
attr source linkSimpleNeighSize
attr title "Simple Neighbour Size, mean"
scalar OPSHeraldNetwork.host[0] linkContactCount:last 34
attr source sum(linkContactCount)
attr title "Contact Count, last"
scalar OPSHeraldNetwork.host[0] linkAvgContactDuration:last 1770.8823529412
attr source sum(linkContactDuration)/sum(linkContactDurationCount)
attr title "Average Contact Duration, last"
attr unit s
scalar OPSHeraldNetwork.host[0] linkAvgNeighbourSize:last 0.24392526455026
attr source sum(linkNeighSize)/sum(linkNeighSizeCount)
attr title "Average Neighbour Size, last"
scalar OPSHeraldNetwork.host[0] fwdTotalBytesSent:last 16224526
attr source sum(fwdTotalBytesSent)
attr title "Total Sent, last"
attr unit byte
scalar OPSHeraldNetwork.host[0] fwdDPTableDataBytesSent:last -nan
attr source sum(fwdDPTableDataBytesSent)
attr title "DP Table Data Sent, last"
attr unit byte
scalar OPSHeraldNetwork.host[0] fwdDPTableRequestBytesSent:last -nan
attr source sum(fwdDPTableRequestBytesSent)
attr title "DP Table Requests Sent, last"
attr unit byte
scalar OPSHeraldNetwork.host[0] fwdDataReqBytesSent:last -nan
attr source sum(fwdDataReqBytesSent)
attr title "Data Requests Sent, last"
attr unit byte
scalar OPSHeraldNetwork.host[0] fwdSumVecBytesSent:last -nan
attr source sum(fwdSumVecBytesSent)
attr title "Summary Vectors Sent, last"
attr unit byte
scalar OPSHeraldNetwork.host[0] fwdDataBytesSent:last 16224526
attr source sum(fwdDataBytesSent)
attr title "Data Sent, last"
attr unit byte
scalar OPSHeraldNetwork.host[0] fwdCurrentCacheSizeBytes2:last 73883653
attr source fwdCurrentCacheSizeBytes2
attr title "Cache Size, last"
attr unit byte
scalar OPSHeraldNetwork.host[0] fwdCurrentCacheSizeBytes2:mean 37420355.051581
attr source fwdCurrentCacheSizeBytes2
attr title "Cache Size, mean"
attr unit byte
scalar OPSHeraldNetwork.host[0] fwdCurrentCacheSizeBytesPeriodic:last 73883653
attr source fwdCurrentCacheSizeBytesPeriodic
attr title "Periodic Cache Size, last"
attr unit byte
scalar OPSHeraldNetwork.host[0] fwdCurrentCacheSizeBytesPeriodic:mean 22870367.693948
attr source fwdCurrentCacheSizeBytesPeriodic
attr title "Periodic Cache Size, mean"
attr unit byte
scalar OPSHeraldNetwork.host[0] fwdCurrentCacheSizeBytesAvg:last 37420355.051581
attr source sum(fwdCurrentCacheSizeBytes)/sum(fwdCurrentCacheSizeReportedCount)
attr title "Average Cache Size, last"
attr unit byte
scalar OPSHeraldNetwork.host[0] fwdCacheBytesUpdated:last 1510358
attr source sum(fwdCacheBytesUpdated)
attr title "Cache Updates, last"
attr unit byte
scalar OPSHeraldNetwork.host[0] fwdCacheBytesAdded:last 73883653
attr source sum(fwdCacheBytesAdded)
attr title "Cache Additions, last"
attr unit byte
scalar OPSHeraldNetwork.host[0] fwdCacheBytesRemoved:last -nan
attr source sum(fwdCacheBytesRemoved)
attr title "Cache Removals, last"
attr unit byte
scalar OPSHeraldNetwork.host[0] fwdAvgHopsTravelled:last 3.8520933424846
attr source sum(fwdHopsTravelled)/sum(fwdHopsTravelledCount)
attr title "Average Hops Travelled, last"
scalar OPSHeraldNetwork.host[0] fwdTotalBytesReceived:last 73299590
attr source sum(fwdTotalBytesReceived)
attr title "Total Received, last"
attr unit byte
scalar OPSHeraldNetwork.host[0] fwdDPTableDataBytesReceived:last -nan
attr source sum(fwdDPTableDataBytesReceived)
attr title "DP Table Data Received, last"
attr unit byte
scalar OPSHeraldNetwork.host[0] fwdDPTableRequestBytesReceived:last -nan
attr source sum(fwdDPTableRequestBytesReceived)
attr title "DP Table Requests Received, last"
attr unit byte
scalar OPSHeraldNetwork.host[0] fwdDataReqBytesReceived:last -nan
attr source sum(fwdDataReqBytesReceived)
attr title "Data Requests Received, last"
attr unit byte
scalar OPSHeraldNetwork.host[0] fwdSumVecBytesReceived:last -nan
attr source sum(fwdSumVecBytesReceived)
attr title "Summary Vectors Received, last"
attr unit byte
scalar OPSHeraldNetwork.host[0] fwdDataBytesReceived:last 73299590
attr source sum(fwdDataBytesReceived)
attr title "Data Received, last"
attr unit byte
scalar OPSHeraldNetwork.host[0] appTotalDataCountReceived2:last 2857
attr source sum(appTotalDataCountReceived2)
scalar OPSHeraldNetwork.host[0] appTotalDataBytesReceived2:last 71716382
attr source sum(appTotalDataBytesReceived2)
scalar OPSHeraldNetwork.host[0] appTotalDataReceivedDelay2:mean 154776.95565277
attr source appTotalDataReceivedDelay2
scalar OPSHeraldNetwork.host[0] appNonLikedDataReceivedDelay2:mean 154714.10381572
attr source appNonLikedDataReceivedDelay2
scalar OPSHeraldNetwork.host[0] appLikedDataReceivedDelay2:mean 154967.73050848
attr source appLikedDataReceivedDelay2
scalar OPSHeraldNetwork.host[0] appTotalDataAvgHopCount:last 3.8578928946447
attr source sum(appTotalDataHopsForAvgHopsComp)/sum(appTotalDataHopsCountForAvgHopsComp)
scalar OPSHeraldNetwork.host[0] appNonLikedDataAvgHopCount:last 3.8757561656584
attr source sum(appNonLikedDataHopsForAvgHopsComp)/sum(appNonLikedDataHopsCountForAvgHopsComp)
scalar OPSHeraldNetwork.host[0] appLikedDataAvgHopCount:last 3.8036723163842
attr source sum(appLikedDataHopsForAvgHopsComp)/sum(appLikedDataHopsCountForAvgHopsComp)
scalar OPSHeraldNetwork.host[0] appTotalDataDeliveryRatio:last 0.66073080481036
attr source sum(appTotalDataCountReceivedForRatioComp)/sum(appTotalDataCountMaxReceivableForRatioComp)
scalar OPSHeraldNetwork.host[0] appNonLikedDataDeliveryRatio:last 0.66245376078915
attr source sum(appNonLikedDataCountReceivedForRatioComp)/sum(appNonLikedDataCountMaxReceivableForRatioComp)
scalar OPSHeraldNetwork.host[0] appLikedDataDeliveryRatio:last 0.65555555555556
attr source sum(appLikedDataCountReceivedForRatioComp)/sum(appLikedDataCountMaxReceivableForRatioComp)
scalar OPSHeraldNetwork.host[0] appTotalDataReceivedAvgDelay:last 154776.95565277
attr source sum(appTotalDataReceivedDelay)/sum(appTotalDataCountReceivedForAvgDelayComp)
scalar OPSHeraldNetwork.host[0] appNonLikedDataReceivedAvgDelay:last 154714.10381572
attr source sum(appNonLikedDataReceivedDelay)/sum(appNonLikedDataCountReceivedForAvgDelayComp)
scalar OPSHeraldNetwork.host[0] appLikedDataReceivedAvgDelay:last 154967.73050848
attr source sum(appLikedDataReceivedDelay)/sum(appLikedDataCountReceivedForAvgDelayComp)
scalar OPSHeraldNetwork.host[0] appTotalDataCountMaxReceivable:last 4324
attr source sum(appTotalDataCountMaxReceivable)
scalar OPSHeraldNetwork.host[0] appNonLikedDataCountMaxReceivable:last 3244
attr source sum(appNonLikedDataCountMaxReceivable)
scalar OPSHeraldNetwork.host[0] appLikedDataCountMaxReceivable:last 1080
attr source sum(appLikedDataCountMaxReceivable)
scalar OPSHeraldNetwork.host[0] appTotalDataBytesMaxReceivable:last 108302482
attr source sum(appTotalDataBytesMaxReceivable)
scalar OPSHeraldNetwork.host[0] appNonLikedDataBytesMaxReceivable:last 81096742
attr source sum(appNonLikedDataBytesMaxReceivable)
scalar OPSHeraldNetwork.host[0] appLikedDataBytesMaxReceivable:last 27205740
attr source sum(appLikedDataBytesMaxReceivable)
scalar OPSHeraldNetwork.host[0] appTotalDataCountReceived:last 2914
attr source sum(appTotalDataCountReceived)
scalar OPSHeraldNetwork.host[0] appDuplicateDataCountReceived:last 57
attr source sum(appDuplicateDataCountReceived)
scalar OPSHeraldNetwork.host[0] appNonLikedDataCountReceived:last 2149
attr source sum(appNonLikedDataCountReceived)
scalar OPSHeraldNetwork.host[0] appLikedDataCountReceived:last 708
attr source sum(appLikedDataCountReceived)
scalar OPSHeraldNetwork.host[0] appTotalDataBytesReceived:last 73226740
attr source sum(appTotalDataBytesReceived)
scalar OPSHeraldNetwork.host[0] appDuplicateDataBytesReceived:last 1510358
attr source sum(appDuplicateDataBytesReceived)
scalar OPSHeraldNetwork.host[0] appNonLikedDataBytesReceived:last 53930278
attr source sum(appNonLikedDataBytesReceived)
scalar OPSHeraldNetwork.host[0] appLikedDataBytesReceived:last 17786104
attr source sum(appLikedDataBytesReceived)
scalar OPSHeraldNetwork.host[1].forwarding numEventsHandled 16019
scalar OPSHeraldNetwork.host[1] linkSimpleNeighbourSize:mean 0.01692791005291
attr source linkSimpleNeighSize
attr title "Simple Neighbour Size, mean"
scalar OPSHeraldNetwork.host[1] linkContactCount:last 4
attr source sum(linkContactCount)
attr title "Contact Count, last"
scalar OPSHeraldNetwork.host[1] linkAvgContactDuration:last 1907.5
attr source sum(linkContactDuration)/sum(linkContactDurationCount)
attr title "Average Contact Duration, last"
attr unit s
scalar OPSHeraldNetwork.host[1] linkAvgNeighbourSize:last 0.01692791005291
attr source sum(linkNeighSize)/sum(linkNeighSizeCount)
attr title "Average Neighbour Size, last"
scalar OPSHeraldNetwork.host[1] fwdTotalBytesSent:last 18046990
attr source sum(fwdTotalBytesSent)
attr title "Total Sent, last"
attr unit byte
scalar OPSHeraldNetwork.host[1] fwdDPTableDataBytesSent:last -nan
attr source sum(fwdDPTableDataBytesSent)
attr title "DP Table Data Sent, last"
attr unit byte
scalar OPSHeraldNetwork.host[1] fwdDPTableRequestBytesSent:last -nan
attr source sum(fwdDPTableRequestBytesSent)
attr title "DP Table Requests Sent, last"
attr unit byte
scalar OPSHeraldNetwork.host[1] fwdDataReqBytesSent:last -nan
attr source sum(fwdDataReqBytesSent)
attr title "Data Requests Sent, last"
attr unit byte
scalar OPSHeraldNetwork.host[1] fwdSumVecBytesSent:last -nan
attr source sum(fwdSumVecBytesSent)
attr title "Summary Vectors Sent, last"
attr unit byte
scalar OPSHeraldNetwork.host[1] fwdDataBytesSent:last 18046990
attr source sum(fwdDataBytesSent)
attr title "Data Sent, last"
attr unit byte
scalar OPSHeraldNetwork.host[1] fwdCurrentCacheSizeBytes2:last 58732314
attr source fwdCurrentCacheSizeBytes2
attr title "Cache Size, last"
attr unit byte
scalar OPSHeraldNetwork.host[1] fwdCurrentCacheSizeBytes2:mean 29568642.633333
attr source fwdCurrentCacheSizeBytes2
attr title "Cache Size, mean"
attr unit byte
scalar OPSHeraldNetwork.host[1] fwdCurrentCacheSizeBytesPeriodic:last 58732314
attr source fwdCurrentCacheSizeBytesPeriodic
attr title "Periodic Cache Size, last"
attr unit byte
scalar OPSHeraldNetwork.host[1] fwdCurrentCacheSizeBytesPeriodic:mean 14155103.41584
attr source fwdCurrentCacheSizeBytesPeriodic
attr title "Periodic Cache Size, mean"
attr unit byte
scalar OPSHeraldNetwork.host[1] fwdCurrentCacheSizeBytesAvg:last 29568642.633333
attr source sum(fwdCurrentCacheSizeBytes)/sum(fwdCurrentCacheSizeReportedCount)
attr title "Average Cache Size, last"
attr unit byte
scalar OPSHeraldNetwork.host[1] fwdCacheBytesUpdated:last -nan
attr source sum(fwdCacheBytesUpdated)
attr title "Cache Updates, last"
attr unit byte
scalar OPSHeraldNetwork.host[1] fwdCacheBytesAdded:last 58732314
attr source sum(fwdCacheBytesAdded)
attr title "Cache Additions, last"
attr unit byte
scalar OPSHeraldNetwork.host[1] fwdCacheBytesRemoved:last -nan
attr source sum(fwdCacheBytesRemoved)
attr title "Cache Removals, last"
attr unit byte
scalar OPSHeraldNetwork.host[1] fwdAvgHopsTravelled:last 4.1725055432373
attr source sum(fwdHopsTravelled)/sum(fwdHopsTravelledCount)
attr title "Average Hops Travelled, last"
scalar OPSHeraldNetwork.host[1] fwdTotalBytesReceived:last 56600598
attr source sum(fwdTotalBytesReceived)
attr title "Total Received, last"
attr unit byte
scalar OPSHeraldNetwork.host[1] fwdDPTableDataBytesReceived:last -nan
attr source sum(fwdDPTableDataBytesReceived)
attr title "DP Table Data Received, last"
attr unit byte
scalar OPSHeraldNetwork.host[1] fwdDPTableRequestBytesReceived:last -nan
attr source sum(fwdDPTableRequestBytesReceived)
attr title "DP Table Requests Received, last"
attr unit byte
scalar OPSHeraldNetwork.host[1] fwdDataReqBytesReceived:last -nan
attr source sum(fwdDataReqBytesReceived)
attr title "Data Requests Received, last"
attr unit byte
scalar OPSHeraldNetwork.host[1] fwdSumVecBytesReceived:last -nan
attr source sum(fwdSumVecBytesReceived)
attr title "Summary Vectors Received, last"
attr unit byte
scalar OPSHeraldNetwork.host[1] fwdDataBytesReceived:last 56600598
attr source sum(fwdDataBytesReceived)
attr title "Data Received, last"
attr unit byte
scalar OPSHeraldNetwork.host[1] appTotalDataCountReceived2:last 2255
attr source sum(appTotalDataCountReceived2)
scalar OPSHeraldNetwork.host[1] appTotalDataBytesReceived2:last 56544223
attr source sum(appTotalDataBytesReceived2)
scalar OPSHeraldNetwork.host[1] appTotalDataReceivedDelay2:mean 242557.15365852
attr source appTotalDataReceivedDelay2
scalar OPSHeraldNetwork.host[1] appNonLikedDataReceivedDelay2:mean 243742.78710635
attr source appNonLikedDataReceivedDelay2
scalar OPSHeraldNetwork.host[1] appLikedDataReceivedDelay2:mean 239068.65524476
attr source appLikedDataReceivedDelay2
scalar OPSHeraldNetwork.host[1] appTotalDataAvgHopCount:last 4.1725055432373
attr source sum(appTotalDataHopsForAvgHopsComp)/sum(appTotalDataHopsCountForAvgHopsComp)
scalar OPSHeraldNetwork.host[1] appNonLikedDataAvgHopCount:last 4.1681521093286
attr source sum(appNonLikedDataHopsForAvgHopsComp)/sum(appNonLikedDataHopsCountForAvgHopsComp)
scalar OPSHeraldNetwork.host[1] appLikedDataAvgHopCount:last 4.1853146853147
attr source sum(appLikedDataHopsForAvgHopsComp)/sum(appLikedDataHopsCountForAvgHopsComp)
scalar OPSHeraldNetwork.host[1] appTotalDataDeliveryRatio:last 0.52078521939954
attr source sum(appTotalDataCountReceivedForRatioComp)/sum(appTotalDataCountMaxReceivableForRatioComp)
scalar OPSHeraldNetwork.host[1] appNonLikedDataDeliveryRatio:last 0.51928417155199
attr source sum(appNonLikedDataCountReceivedForRatioComp)/sum(appNonLikedDataCountMaxReceivableForRatioComp)
scalar OPSHeraldNetwork.host[1] appLikedDataDeliveryRatio:last 0.52525252525253
attr source sum(appLikedDataCountReceivedForRatioComp)/sum(appLikedDataCountMaxReceivableForRatioComp)
scalar OPSHeraldNetwork.host[1] appTotalDataReceivedAvgDelay:last 242557.15365852
attr source sum(appTotalDataReceivedDelay)/sum(appTotalDataCountReceivedForAvgDelayComp)
scalar OPSHeraldNetwork.host[1] appNonLikedDataReceivedAvgDelay:last 243742.78710635
attr source sum(appNonLikedDataReceivedDelay)/sum(appNonLikedDataCountReceivedForAvgDelayComp)
scalar OPSHeraldNetwork.host[1] appLikedDataReceivedAvgDelay:last 239068.65524476
attr source sum(appLikedDataReceivedDelay)/sum(appLikedDataCountReceivedForAvgDelayComp)
scalar OPSHeraldNetwork.host[1] appTotalDataCountMaxReceivable:last 4330
attr source sum(appTotalDataCountMaxReceivable)
scalar OPSHeraldNetwork.host[1] appNonLikedDataCountMaxReceivable:last 3241
attr source sum(appNonLikedDataCountMaxReceivable)
scalar OPSHeraldNetwork.host[1] appLikedDataCountMaxReceivable:last 1089
attr source sum(appLikedDataCountMaxReceivable)
scalar OPSHeraldNetwork.host[1] appTotalDataBytesMaxReceivable:last 108281662
attr source sum(appTotalDataBytesMaxReceivable)
scalar OPSHeraldNetwork.host[1] appNonLikedDataBytesMaxReceivable:last 80905748
attr source sum(appNonLikedDataBytesMaxReceivable)
scalar OPSHeraldNetwork.host[1] appLikedDataBytesMaxReceivable:last 27375914
attr source sum(appLikedDataBytesMaxReceivable)
scalar OPSHeraldNetwork.host[1] appTotalDataCountReceived:last 2255
attr source sum(appTotalDataCountReceived)
scalar OPSHeraldNetwork.host[1] appDuplicateDataCountReceived:last -nan
attr source sum(appDuplicateDataCountReceived)
scalar OPSHeraldNetwork.host[1] appNonLikedDataCountReceived:last 1683
attr source sum(appNonLikedDataCountReceived)
scalar OPSHeraldNetwork.host[1] appLikedDataCountReceived:last 572
attr source sum(appLikedDataCountReceived)
scalar OPSHeraldNetwork.host[1] appTotalDataBytesReceived:last 56544223
attr source sum(appTotalDataBytesReceived)
scalar OPSHeraldNetwork.host[1] appDuplicateDataBytesReceived:last -nan
attr source sum(appDuplicateDataBytesReceived)
scalar OPSHeraldNetwork.host[1] appNonLikedDataBytesReceived:last 42173929
attr source sum(appNonLikedDataBytesReceived)
scalar OPSHeraldNetwork.host[1] appLikedDataBytesReceived:last 14370294
attr source sum(appLikedDataBytesReceived)
scalar OPSHeraldNetwork.host[2].forwarding numEventsHandled 126494
scalar OPSHeraldNetwork.host[2] linkSimpleNeighbourSize:mean 0.32945767195767
attr source linkSimpleNeighSize
attr title "Simple Neighbour Size, mean"
scalar OPSHeraldNetwork.host[2] linkContactCount:last 104
attr source sum(linkContactCount)
attr title "Contact Count, last"
scalar OPSHeraldNetwork.host[2] linkAvgContactDuration:last 1128.3076923077
attr source sum(linkContactDuration)/sum(linkContactDurationCount)
attr title "Average Contact Duration, last"
attr unit s
scalar OPSHeraldNetwork.host[2] linkAvgNeighbourSize:last 0.32945767195767
attr source sum(linkNeighSize)/sum(linkNeighSizeCount)
attr title "Average Neighbour Size, last"
scalar OPSHeraldNetwork.host[2] fwdTotalBytesSent:last 25810047
attr source sum(fwdTotalBytesSent)
attr title "Total Sent, last"
attr unit byte
scalar OPSHeraldNetwork.host[2] fwdDPTableDataBytesSent:last -nan
attr source sum(fwdDPTableDataBytesSent)
attr title "DP Table Data Sent, last"
attr unit byte
scalar OPSHeraldNetwork.host[2] fwdDPTableRequestBytesSent:last -nan
attr source sum(fwdDPTableRequestBytesSent)
attr title "DP Table Requests Sent, last"
attr unit byte
scalar OPSHeraldNetwork.host[2] fwdDataReqBytesSent:last -nan
attr source sum(fwdDataReqBytesSent)
attr title "Data Requests Sent, last"
attr unit byte
scalar OPSHeraldNetwork.host[2] fwdSumVecBytesSent:last -nan
attr source sum(fwdSumVecBytesSent)
attr title "Summary Vectors Sent, last"
attr unit byte
scalar OPSHeraldNetwork.host[2] fwdDataBytesSent:last 25810047
attr source sum(fwdDataBytesSent)
attr title "Data Sent, last"
attr unit byte
scalar OPSHeraldNetwork.host[2] fwdCurrentCacheSizeBytes2:last 76100903
attr source fwdCurrentCacheSizeBytes2
attr title "Cache Size, last"
attr unit byte
scalar OPSHeraldNetwork.host[2] fwdCurrentCacheSizeBytes2:mean 38321449.386972
attr source fwdCurrentCacheSizeBytes2
attr title "Cache Size, mean"
attr unit byte
scalar OPSHeraldNetwork.host[2] fwdCurrentCacheSizeBytesPeriodic:last 76100903
attr source fwdCurrentCacheSizeBytesPeriodic
attr title "Periodic Cache Size, last"
attr unit byte
scalar OPSHeraldNetwork.host[2] fwdCurrentCacheSizeBytesPeriodic:mean 24540730.181217
attr source fwdCurrentCacheSizeBytesPeriodic
attr title "Periodic Cache Size, mean"
attr unit byte
scalar OPSHeraldNetwork.host[2] fwdCurrentCacheSizeBytesAvg:last 38321449.386972
attr source sum(fwdCurrentCacheSizeBytes)/sum(fwdCurrentCacheSizeReportedCount)
attr title "Average Cache Size, last"
attr unit byte
scalar OPSHeraldNetwork.host[2] fwdCacheBytesUpdated:last 1629697
attr source sum(fwdCacheBytesUpdated)
attr title "Cache Updates, last"
attr unit byte
scalar OPSHeraldNetwork.host[2] fwdCacheBytesAdded:last 76100903
attr source sum(fwdCacheBytesAdded)
attr title "Cache Additions, last"
attr unit byte
scalar OPSHeraldNetwork.host[2] fwdCacheBytesRemoved:last -nan
attr source sum(fwdCacheBytesRemoved)
attr title "Cache Removals, last"
attr unit byte
scalar OPSHeraldNetwork.host[2] fwdAvgHopsTravelled:last 3.4461794019934
attr source sum(fwdHopsTravelled)/sum(fwdHopsTravelledCount)
attr title "Average Hops Travelled, last"
scalar OPSHeraldNetwork.host[2] fwdTotalBytesReceived:last 75409822
attr source sum(fwdTotalBytesReceived)
attr title "Total Received, last"
attr unit byte
scalar OPSHeraldNetwork.host[2] fwdDPTableDataBytesReceived:last -nan
attr source sum(fwdDPTableDataBytesReceived)
attr title "DP Table Data Received, last"
attr unit byte
scalar OPSHeraldNetwork.host[2] fwdDPTableRequestBytesReceived:last -nan
attr source sum(fwdDPTableRequestBytesReceived)
attr title "DP Table Requests Received, last"
attr unit byte
scalar OPSHeraldNetwork.host[2] fwdDataReqBytesReceived:last -nan
attr source sum(fwdDataReqBytesReceived)
attr title "Data Requests Received, last"
attr unit byte
scalar OPSHeraldNetwork.host[2] fwdSumVecBytesReceived:last -nan
attr source sum(fwdSumVecBytesReceived)
attr title "Summary Vectors Received, last"
attr unit byte
scalar OPSHeraldNetwork.host[2] fwdDataBytesReceived:last 75409822
attr source sum(fwdDataBytesReceived)
attr title "Data Received, last"
attr unit byte
scalar OPSHeraldNetwork.host[2] appTotalDataCountReceived2:last 2951
attr source sum(appTotalDataCountReceived2)
scalar OPSHeraldNetwork.host[2] appTotalDataBytesReceived2:last 73704875
attr source sum(appTotalDataBytesReceived2)
scalar OPSHeraldNetwork.host[2] appTotalDataReceivedDelay2:mean 139254.96675702
attr source appTotalDataReceivedDelay2
scalar OPSHeraldNetwork.host[2] appNonLikedDataReceivedDelay2:mean 139306.82485287
attr source appNonLikedDataReceivedDelay2
scalar OPSHeraldNetwork.host[2] appLikedDataReceivedDelay2:mean 139100.58059299
attr source appLikedDataReceivedDelay2
scalar OPSHeraldNetwork.host[2] appTotalDataAvgHopCount:last 3.4415452389021
attr source sum(appTotalDataHopsForAvgHopsComp)/sum(appTotalDataHopsCountForAvgHopsComp)
scalar OPSHeraldNetwork.host[2] appNonLikedDataAvgHopCount:last 3.427795382526
attr source sum(appNonLikedDataHopsForAvgHopsComp)/sum(appNonLikedDataHopsCountForAvgHopsComp)
scalar OPSHeraldNetwork.host[2] appLikedDataAvgHopCount:last 3.4824797843666
attr source sum(appLikedDataHopsForAvgHopsComp)/sum(appLikedDataHopsCountForAvgHopsComp)
scalar OPSHeraldNetwork.host[2] appTotalDataDeliveryRatio:last 0.68246993524514
attr source sum(appTotalDataCountReceivedForRatioComp)/sum(appTotalDataCountMaxReceivableForRatioComp)
scalar OPSHeraldNetwork.host[2] appNonLikedDataDeliveryRatio:last 0.68200061747453
attr source sum(appNonLikedDataCountReceivedForRatioComp)/sum(appNonLikedDataCountMaxReceivableForRatioComp)
scalar OPSHeraldNetwork.host[2] appLikedDataDeliveryRatio:last 0.68387096774194
attr source sum(appLikedDataCountReceivedForRatioComp)/sum(appLikedDataCountMaxReceivableForRatioComp)
scalar OPSHeraldNetwork.host[2] appTotalDataReceivedAvgDelay:last 139254.96675702
attr source sum(appTotalDataReceivedDelay)/sum(appTotalDataCountReceivedForAvgDelayComp)
scalar OPSHeraldNetwork.host[2] appNonLikedDataReceivedAvgDelay:last 139306.82485287
attr source sum(appNonLikedDataReceivedDelay)/sum(appNonLikedDataCountReceivedForAvgDelayComp)
scalar OPSHeraldNetwork.host[2] appLikedDataReceivedAvgDelay:last 139100.58059299
attr source sum(appLikedDataReceivedDelay)/sum(appLikedDataCountReceivedForAvgDelayComp)
scalar OPSHeraldNetwork.host[2] appTotalDataCountMaxReceivable:last 4324
attr source sum(appTotalDataCountMaxReceivable)
scalar OPSHeraldNetwork.host[2] appNonLikedDataCountMaxReceivable:last 3239
attr source sum(appNonLikedDataCountMaxReceivable)
scalar OPSHeraldNetwork.host[2] appLikedDataCountMaxReceivable:last 1085
attr source sum(appLikedDataCountMaxReceivable)
scalar OPSHeraldNetwork.host[2] appTotalDataBytesMaxReceivable:last 108073725
attr source sum(appTotalDataBytesMaxReceivable)
scalar OPSHeraldNetwork.host[2] appNonLikedDataBytesMaxReceivable:last 80814437
attr source sum(appNonLikedDataBytesMaxReceivable)
scalar OPSHeraldNetwork.host[2] appLikedDataBytesMaxReceivable:last 27259288
attr source sum(appLikedDataBytesMaxReceivable)
scalar OPSHeraldNetwork.host[2] appTotalDataCountReceived:last 3010
attr source sum(appTotalDataCountReceived)
scalar OPSHeraldNetwork.host[2] appDuplicateDataCountReceived:last 59
attr source sum(appDuplicateDataCountReceived)
scalar OPSHeraldNetwork.host[2] appNonLikedDataCountReceived:last 2209
attr source sum(appNonLikedDataCountReceived)
scalar OPSHeraldNetwork.host[2] appLikedDataCountReceived:last 742
attr source sum(appLikedDataCountReceived)
scalar OPSHeraldNetwork.host[2] appTotalDataBytesReceived:last 75334572
attr source sum(appTotalDataBytesReceived)
scalar OPSHeraldNetwork.host[2] appDuplicateDataBytesReceived:last 1629697
attr source sum(appDuplicateDataBytesReceived)
scalar OPSHeraldNetwork.host[2] appNonLikedDataBytesReceived:last 55126452
attr source sum(appNonLikedDataBytesReceived)
scalar OPSHeraldNetwork.host[2] appLikedDataBytesReceived:last 18578423
attr source sum(appLikedDataBytesReceived)
scalar OPSHeraldNetwork.host[3].forwarding numEventsHandled 6136
scalar OPSHeraldNetwork.host[3] linkSimpleNeighbourSize:mean 0
attr source linkSimpleNeighSize
attr title "Simple Neighbour Size, mean"
scalar OPSHeraldNetwork.host[3] linkContactCount:last -nan
attr source sum(linkContactCount)
attr title "Contact Count, last"
scalar OPSHeraldNetwork.host[3] linkAvgContactDuration:last -nan
attr source sum(linkContactDuration)/sum(linkContactDurationCount)
attr title "Average Contact Duration, last"
attr unit s
scalar OPSHeraldNetwork.host[3] linkAvgNeighbourSize:last 0
attr source sum(linkNeighSize)/sum(linkNeighSizeCount)
attr title "Average Neighbour Size, last"
scalar OPSHeraldNetwork.host[3] fwdTotalBytesSent:last -nan
attr source sum(fwdTotalBytesSent)
attr title "Total Sent, last"
attr unit byte
scalar OPSHeraldNetwork.host[3] fwdDPTableDataBytesSent:last -nan
attr source sum(fwdDPTableDataBytesSent)
attr title "DP Table Data Sent, last"
attr unit byte
scalar OPSHeraldNetwork.host[3] fwdDPTableRequestBytesSent:last -nan
attr source sum(fwdDPTableRequestBytesSent)
attr title "DP Table Requests Sent, last"
attr unit byte
scalar OPSHeraldNetwork.host[3] fwdDataReqBytesSent:last -nan
attr source sum(fwdDataReqBytesSent)
attr title "Data Requests Sent, last"
attr unit byte
scalar OPSHeraldNetwork.host[3] fwdSumVecBytesSent:last -nan
attr source sum(fwdSumVecBytesSent)
attr title "Summary Vectors Sent, last"
attr unit byte
scalar OPSHeraldNetwork.host[3] fwdDataBytesSent:last -nan
attr source sum(fwdDataBytesSent)
attr title "Data Sent, last"
attr unit byte
scalar OPSHeraldNetwork.host[3] fwdCurrentCacheSizeBytes2:last 2355754
attr source fwdCurrentCacheSizeBytes2
attr title "Cache Size, last"
attr unit byte
scalar OPSHeraldNetwork.host[3] fwdCurrentCacheSizeBytes2:mean 1125575.2298851
attr source fwdCurrentCacheSizeBytes2
attr title "Cache Size, mean"
attr unit byte
scalar OPSHeraldNetwork.host[3] fwdCurrentCacheSizeBytesPeriodic:last 2355754
attr source fwdCurrentCacheSizeBytesPeriodic
attr title "Periodic Cache Size, last"
attr unit byte
scalar OPSHeraldNetwork.host[3] fwdCurrentCacheSizeBytesPeriodic:mean 1043723.6094577
attr source fwdCurrentCacheSizeBytesPeriodic
attr title "Periodic Cache Size, mean"
attr unit byte
scalar OPSHeraldNetwork.host[3] fwdCurrentCacheSizeBytesAvg:last 1125575.2298851
attr source sum(fwdCurrentCacheSizeBytes)/sum(fwdCurrentCacheSizeReportedCount)
attr title "Average Cache Size, last"
attr unit byte
scalar OPSHeraldNetwork.host[3] fwdCacheBytesUpdated:last -nan
attr source sum(fwdCacheBytesUpdated)
attr title "Cache Updates, last"
attr unit byte
scalar OPSHeraldNetwork.host[3] fwdCacheBytesAdded:last 2355754
attr source sum(fwdCacheBytesAdded)
attr title "Cache Additions, last"
attr unit byte
scalar OPSHeraldNetwork.host[3] fwdCacheBytesRemoved:last -nan
attr source sum(fwdCacheBytesRemoved)
attr title "Cache Removals, last"
attr unit byte
scalar OPSHeraldNetwork.host[3] fwdAvgHopsTravelled:last -nan
attr source sum(fwdHopsTravelled)/sum(fwdHopsTravelledCount)
attr title "Average Hops Travelled, last"
scalar OPSHeraldNetwork.host[3] fwdTotalBytesReceived:last -nan
attr source sum(fwdTotalBytesReceived)
attr title "Total Received, last"
attr unit byte
scalar OPSHeraldNetwork.host[3] fwdDPTableDataBytesReceived:last -nan
attr source sum(fwdDPTableDataBytesReceived)
attr title "DP Table Data Received, last"
attr unit byte
scalar OPSHeraldNetwork.host[3] fwdDPTableRequestBytesReceived:last -nan
attr source sum(fwdDPTableRequestBytesReceived)
attr title "DP Table Requests Received, last"
attr unit byte
scalar OPSHeraldNetwork.host[3] fwdDataReqBytesReceived:last -nan
attr source sum(fwdDataReqBytesReceived)
attr title "Data Requests Received, last"
attr unit byte
scalar OPSHeraldNetwork.host[3] fwdSumVecBytesReceived:last -nan
attr source sum(fwdSumVecBytesReceived)
attr title "Summary Vectors Received, last"
attr unit byte
scalar OPSHeraldNetwork.host[3] fwdDataBytesReceived:last -nan
attr source sum(fwdDataBytesReceived)
attr title "Data Received, last"
attr unit byte
scalar OPSHeraldNetwork.host[3] appTotalDataCountReceived2:last -nan
attr source sum(appTotalDataCountReceived2)
scalar OPSHeraldNetwork.host[3] appTotalDataBytesReceived2:last -nan
attr source sum(appTotalDataBytesReceived2)
scalar OPSHeraldNetwork.host[3] appTotalDataReceivedDelay2:mean -nan
attr source appTotalDataReceivedDelay2
scalar OPSHeraldNetwork.host[3] appNonLikedDataReceivedDelay2:mean -nan
attr source appNonLikedDataReceivedDelay2
scalar OPSHeraldNetwork.host[3] appLikedDataReceivedDelay2:mean -nan
attr source appLikedDataReceivedDelay2
scalar OPSHeraldNetwork.host[3] appTotalDataAvgHopCount:last -nan
attr source sum(appTotalDataHopsForAvgHopsComp)/sum(appTotalDataHopsCountForAvgHopsComp)
scalar OPSHeraldNetwork.host[3] appNonLikedDataAvgHopCount:last -nan
attr source sum(appNonLikedDataHopsForAvgHopsComp)/sum(appNonLikedDataHopsCountForAvgHopsComp)
scalar OPSHeraldNetwork.host[3] appLikedDataAvgHopCount:last -nan
attr source sum(appLikedDataHopsForAvgHopsComp)/sum(appLikedDataHopsCountForAvgHopsComp)
scalar OPSHeraldNetwork.host[3] appTotalDataDeliveryRatio:last -nan
attr source sum(appTotalDataCountReceivedForRatioComp)/sum(appTotalDataCountMaxReceivableForRatioComp)
scalar OPSHeraldNetwork.host[3] appNonLikedDataDeliveryRatio:last -nan
attr source sum(appNonLikedDataCountReceivedForRatioComp)/sum(appNonLikedDataCountMaxReceivableForRatioComp)
scalar OPSHeraldNetwork.host[3] appLikedDataDeliveryRatio:last -nan
attr source sum(appLikedDataCountReceivedForRatioComp)/sum(appLikedDataCountMaxReceivableForRatioComp)
scalar OPSHeraldNetwork.host[3] appTotalDataReceivedAvgDelay:last -nan
attr source sum(appTotalDataReceivedDelay)/sum(appTotalDataCountReceivedForAvgDelayComp)
scalar OPSHeraldNetwork.host[3] appNonLikedDataReceivedAvgDelay:last -nan
attr source sum(appNonLikedDataReceivedDelay)/sum(appNonLikedDataCountReceivedForAvgDelayComp)
scalar OPSHeraldNetwork.host[3] appLikedDataReceivedAvgDelay:last -nan
attr source sum(appLikedDataReceivedDelay)/sum(appLikedDataCountReceivedForAvgDelayComp)
scalar OPSHeraldNetwork.host[3] appTotalDataCountMaxReceivable:last 4328
attr source sum(appTotalDataCountMaxReceivable)
scalar OPSHeraldNetwork.host[3] appNonLikedDataCountMaxReceivable:last 3253
attr source sum(appNonLikedDataCountMaxReceivable)
scalar OPSHeraldNetwork.host[3] appLikedDataCountMaxReceivable:last 1075
attr source sum(appLikedDataCountMaxReceivable)
scalar OPSHeraldNetwork.host[3] appTotalDataBytesMaxReceivable:last 108113999
attr source sum(appTotalDataBytesMaxReceivable)
scalar OPSHeraldNetwork.host[3] appNonLikedDataBytesMaxReceivable:last 81310371
attr source sum(appNonLikedDataBytesMaxReceivable)
scalar OPSHeraldNetwork.host[3] appLikedDataBytesMaxReceivable:last 26803628
attr source sum(appLikedDataBytesMaxReceivable)
scalar OPSHeraldNetwork.host[3] appTotalDataCountReceived:last -nan
attr source sum(appTotalDataCountReceived)
scalar OPSHeraldNetwork.host[3] appDuplicateDataCountReceived:last -nan
attr source sum(appDuplicateDataCountReceived)
scalar OPSHeraldNetwork.host[3] appNonLikedDataCountReceived:last -nan
attr source sum(appNonLikedDataCountReceived)
scalar OPSHeraldNetwork.host[3] appLikedDataCountReceived:last -nan
attr source sum(appLikedDataCountReceived)
scalar OPSHeraldNetwork.host[3] appTotalDataBytesReceived:last -nan
attr source sum(appTotalDataBytesReceived)
scalar OPSHeraldNetwork.host[3] appDuplicateDataBytesReceived:last -nan
attr source sum(appDuplicateDataBytesReceived)
scalar OPSHeraldNetwork.host[3] appNonLikedDataBytesReceived:last -nan
attr source sum(appNonLikedDataBytesReceived)
scalar OPSHeraldNetwork.host[3] appLikedDataBytesReceived:last -nan
attr source sum(appLikedDataBytesReceived)
scalar OPSHeraldNetwork.host[4].forwarding numEventsHandled 6144
scalar OPSHeraldNetwork.host[4] linkSimpleNeighbourSize:mean 0
attr source linkSimpleNeighSize
attr title "Simple Neighbour Size, mean"
scalar OPSHeraldNetwork.host[4] linkContactCount:last -nan
attr source sum(linkContactCount)
attr title "Contact Count, last"
scalar OPSHeraldNetwork.host[4] linkAvgContactDuration:last -nan
attr source sum(linkContactDuration)/sum(linkContactDurationCount)
attr title "Average Contact Duration, last"
attr unit s
scalar OPSHeraldNetwork.host[4] linkAvgNeighbourSize:last 0
attr source sum(linkNeighSize)/sum(linkNeighSizeCount)
attr title "Average Neighbour Size, last"
scalar OPSHeraldNetwork.host[4] fwdTotalBytesSent:last -nan
attr source sum(fwdTotalBytesSent)
attr title "Total Sent, last"
attr unit byte
scalar OPSHeraldNetwork.host[4] fwdDPTableDataBytesSent:last -nan
attr source sum(fwdDPTableDataBytesSent)
attr title "DP Table Data Sent, last"
attr unit byte
scalar OPSHeraldNetwork.host[4] fwdDPTableRequestBytesSent:last -nan
attr source sum(fwdDPTableRequestBytesSent)
attr title "DP Table Requests Sent, last"
attr unit byte
scalar OPSHeraldNetwork.host[4] fwdDataReqBytesSent:last -nan
attr source sum(fwdDataReqBytesSent)
attr title "Data Requests Sent, last"
attr unit byte
scalar OPSHeraldNetwork.host[4] fwdSumVecBytesSent:last -nan
attr source sum(fwdSumVecBytesSent)
attr title "Summary Vectors Sent, last"
attr unit byte
scalar OPSHeraldNetwork.host[4] fwdDataBytesSent:last -nan
attr source sum(fwdDataBytesSent)
attr title "Data Sent, last"
attr unit byte
scalar OPSHeraldNetwork.host[4] fwdCurrentCacheSizeBytes2:last 2079130
attr source fwdCurrentCacheSizeBytes2
attr title "Cache Size, last"
attr unit byte
scalar OPSHeraldNetwork.host[4] fwdCurrentCacheSizeBytes2:mean 1045416.1157895
attr source fwdCurrentCacheSizeBytes2
attr title "Cache Size, mean"
attr unit byte
scalar OPSHeraldNetwork.host[4] fwdCurrentCacheSizeBytesPeriodic:last 2079130
attr source fwdCurrentCacheSizeBytesPeriodic
attr title "Periodic Cache Size, last"
attr unit byte
scalar OPSHeraldNetwork.host[4] fwdCurrentCacheSizeBytesPeriodic:mean 1006038.3171296
attr source fwdCurrentCacheSizeBytesPeriodic
attr title "Periodic Cache Size, mean"
attr unit byte
scalar OPSHeraldNetwork.host[4] fwdCurrentCacheSizeBytesAvg:last 1045416.1157895
attr source sum(fwdCurrentCacheSizeBytes)/sum(fwdCurrentCacheSizeReportedCount)
attr title "Average Cache Size, last"
attr unit byte
scalar OPSHeraldNetwork.host[4] fwdCacheBytesUpdated:last -nan
attr source sum(fwdCacheBytesUpdated)
attr title "Cache Updates, last"
attr unit byte
scalar OPSHeraldNetwork.host[4] fwdCacheBytesAdded:last 2079130
attr source sum(fwdCacheBytesAdded)
attr title "Cache Additions, last"
attr unit byte
scalar OPSHeraldNetwork.host[4] fwdCacheBytesRemoved:last -nan
attr source sum(fwdCacheBytesRemoved)
attr title "Cache Removals, last"
attr unit byte
scalar OPSHeraldNetwork.host[4] fwdAvgHopsTravelled:last -nan
attr source sum(fwdHopsTravelled)/sum(fwdHopsTravelledCount)
attr title "Average Hops Travelled, last"
scalar OPSHeraldNetwork.host[4] fwdTotalBytesReceived:last -nan
attr source sum(fwdTotalBytesReceived)
attr title "Total Received, last"
attr unit byte
scalar OPSHeraldNetwork.host[4] fwdDPTableDataBytesReceived:last -nan
attr source sum(fwdDPTableDataBytesReceived)
attr title "DP Table Data Received, last"
attr unit byte
scalar OPSHeraldNetwork.host[4] fwdDPTableRequestBytesReceived:last -nan
attr source sum(fwdDPTableRequestBytesReceived)
attr title "DP Table Requests Received, last"
attr unit byte
scalar OPSHeraldNetwork.host[4] fwdDataReqBytesReceived:last -nan
attr source sum(fwdDataReqBytesReceived)
attr title "Data Requests Received, last"
attr unit byte
scalar OPSHeraldNetwork.host[4] fwdSumVecBytesReceived:last -nan
attr source sum(fwdSumVecBytesReceived)
attr title "Summary Vectors Received, last"
attr unit byte
scalar OPSHeraldNetwork.host[4] fwdDataBytesReceived:last -nan
attr source sum(fwdDataBytesReceived)
attr title "Data Received, last"
attr unit byte
scalar OPSHeraldNetwork.host[4] appTotalDataCountReceived2:last -nan
attr source sum(appTotalDataCountReceived2)
scalar OPSHeraldNetwork.host[4] appTotalDataBytesReceived2:last -nan
attr source sum(appTotalDataBytesReceived2)
scalar OPSHeraldNetwork.host[4] appTotalDataReceivedDelay2:mean -nan
attr source appTotalDataReceivedDelay2
scalar OPSHeraldNetwork.host[4] appNonLikedDataReceivedDelay2:mean -nan
attr source appNonLikedDataReceivedDelay2
scalar OPSHeraldNetwork.host[4] appLikedDataReceivedDelay2:mean -nan
attr source appLikedDataReceivedDelay2
scalar OPSHeraldNetwork.host[4] appTotalDataAvgHopCount:last -nan
attr source sum(appTotalDataHopsForAvgHopsComp)/sum(appTotalDataHopsCountForAvgHopsComp)
scalar OPSHeraldNetwork.host[4] appNonLikedDataAvgHopCount:last -nan
attr source sum(appNonLikedDataHopsForAvgHopsComp)/sum(appNonLikedDataHopsCountForAvgHopsComp)
scalar OPSHeraldNetwork.host[4] appLikedDataAvgHopCount:last -nan
attr source sum(appLikedDataHopsForAvgHopsComp)/sum(appLikedDataHopsCountForAvgHopsComp)
scalar OPSHeraldNetwork.host[4] appTotalDataDeliveryRatio:last -nan
attr source sum(appTotalDataCountReceivedForRatioComp)/sum(appTotalDataCountMaxReceivableForRatioComp)
scalar OPSHeraldNetwork.host[4] appNonLikedDataDeliveryRatio:last -nan
attr source sum(appNonLikedDataCountReceivedForRatioComp)/sum(appNonLikedDataCountMaxReceivableForRatioComp)
scalar OPSHeraldNetwork.host[4] appLikedDataDeliveryRatio:last -nan
attr source sum(appLikedDataCountReceivedForRatioComp)/sum(appLikedDataCountMaxReceivableForRatioComp)
scalar OPSHeraldNetwork.host[4] appTotalDataReceivedAvgDelay:last -nan
attr source sum(appTotalDataReceivedDelay)/sum(appTotalDataCountReceivedForAvgDelayComp)
scalar OPSHeraldNetwork.host[4] appNonLikedDataReceivedAvgDelay:last -nan
attr source sum(appNonLikedDataReceivedDelay)/sum(appNonLikedDataCountReceivedForAvgDelayComp)
scalar OPSHeraldNetwork.host[4] appLikedDataReceivedAvgDelay:last -nan
attr source sum(appLikedDataReceivedDelay)/sum(appLikedDataCountReceivedForAvgDelayComp)
scalar OPSHeraldNetwork.host[4] appTotalDataCountMaxReceivable:last 4320
attr source sum(appTotalDataCountMaxReceivable)
scalar OPSHeraldNetwork.host[4] appNonLikedDataCountMaxReceivable:last 3234
attr source sum(appNonLikedDataCountMaxReceivable)
scalar OPSHeraldNetwork.host[4] appLikedDataCountMaxReceivable:last 1086
attr source sum(appLikedDataCountMaxReceivable)
scalar OPSHeraldNetwork.host[4] appTotalDataBytesMaxReceivable:last 108390623
attr source sum(appTotalDataBytesMaxReceivable)
scalar OPSHeraldNetwork.host[4] appNonLikedDataBytesMaxReceivable:last 81006061
attr source sum(appNonLikedDataBytesMaxReceivable)
scalar OPSHeraldNetwork.host[4] appLikedDataBytesMaxReceivable:last 27384562
attr source sum(appLikedDataBytesMaxReceivable)
scalar OPSHeraldNetwork.host[4] appTotalDataCountReceived:last -nan
attr source sum(appTotalDataCountReceived)
scalar OPSHeraldNetwork.host[4] appDuplicateDataCountReceived:last -nan
attr source sum(appDuplicateDataCountReceived)
scalar OPSHeraldNetwork.host[4] appNonLikedDataCountReceived:last -nan
attr source sum(appNonLikedDataCountReceived)
scalar OPSHeraldNetwork.host[4] appLikedDataCountReceived:last -nan
attr source sum(appLikedDataCountReceived)
scalar OPSHeraldNetwork.host[4] appTotalDataBytesReceived:last -nan
attr source sum(appTotalDataBytesReceived)
scalar OPSHeraldNetwork.host[4] appDuplicateDataBytesReceived:last -nan
attr source sum(appDuplicateDataBytesReceived)
scalar OPSHeraldNetwork.host[4] appNonLikedDataBytesReceived:last -nan
attr source sum(appNonLikedDataBytesReceived)
scalar OPSHeraldNetwork.host[4] appLikedDataBytesReceived:last -nan
attr source sum(appLikedDataBytesReceived)
scalar OPSHeraldNetwork.host[5].forwarding numEventsHandled 82109
scalar OPSHeraldNetwork.host[5] linkSimpleNeighbourSize:mean 0.31556547619048
attr source linkSimpleNeighSize
attr title "Simple Neighbour Size, mean"
scalar OPSHeraldNetwork.host[5] linkContactCount:last 48
attr source sum(linkContactCount)
attr title "Contact Count, last"
scalar OPSHeraldNetwork.host[5] linkAvgContactDuration:last 1526.8958333333
attr source sum(linkContactDuration)/sum(linkContactDurationCount)
attr title "Average Contact Duration, last"
attr unit s
scalar OPSHeraldNetwork.host[5] linkAvgNeighbourSize:last 0.31556547619048
attr source sum(linkNeighSize)/sum(linkNeighSizeCount)
attr title "Average Neighbour Size, last"
scalar OPSHeraldNetwork.host[5] fwdTotalBytesSent:last 162098687
attr source sum(fwdTotalBytesSent)
attr title "Total Sent, last"
attr unit byte
scalar OPSHeraldNetwork.host[5] fwdDPTableDataBytesSent:last -nan
attr source sum(fwdDPTableDataBytesSent)
attr title "DP Table Data Sent, last"
attr unit byte
scalar OPSHeraldNetwork.host[5] fwdDPTableRequestBytesSent:last -nan
attr source sum(fwdDPTableRequestBytesSent)
attr title "DP Table Requests Sent, last"
attr unit byte
scalar OPSHeraldNetwork.host[5] fwdDataReqBytesSent:last -nan
attr source sum(fwdDataReqBytesSent)
attr title "Data Requests Sent, last"
attr unit byte
scalar OPSHeraldNetwork.host[5] fwdSumVecBytesSent:last -nan
attr source sum(fwdSumVecBytesSent)
attr title "Summary Vectors Sent, last"
attr unit byte
scalar OPSHeraldNetwork.host[5] fwdDataBytesSent:last 162098687
attr source sum(fwdDataBytesSent)
attr title "Data Sent, last"
attr unit byte
scalar OPSHeraldNetwork.host[5] fwdCurrentCacheSizeBytes2:last 67182843
attr source fwdCurrentCacheSizeBytes2
attr title "Cache Size, last"
attr unit byte
scalar OPSHeraldNetwork.host[5] fwdCurrentCacheSizeBytes2:mean 33930677.842542
attr source fwdCurrentCacheSizeBytes2
attr title "Cache Size, mean"
attr unit byte
scalar OPSHeraldNetwork.host[5] fwdCurrentCacheSizeBytesPeriodic:last 67182843
attr source fwdCurrentCacheSizeBytesPeriodic
attr title "Periodic Cache Size, last"
attr unit byte
scalar OPSHeraldNetwork.host[5] fwdCurrentCacheSizeBytesPeriodic:mean 27199780.677414
attr source fwdCurrentCacheSizeBytesPeriodic
attr title "Periodic Cache Size, mean"
attr unit byte
scalar OPSHeraldNetwork.host[5] fwdCurrentCacheSizeBytesAvg:last 33930677.842542
attr source sum(fwdCurrentCacheSizeBytes)/sum(fwdCurrentCacheSizeReportedCount)
attr title "Average Cache Size, last"
attr unit byte
scalar OPSHeraldNetwork.host[5] fwdCacheBytesUpdated:last 2257099
attr source sum(fwdCacheBytesUpdated)
attr title "Cache Updates, last"
attr unit byte
scalar OPSHeraldNetwork.host[5] fwdCacheBytesAdded:last 67182843
attr source sum(fwdCacheBytesAdded)
attr title "Cache Additions, last"
attr unit byte
scalar OPSHeraldNetwork.host[5] fwdCacheBytesRemoved:last -nan
attr source sum(fwdCacheBytesRemoved)
attr title "Cache Removals, last"
attr unit byte
scalar OPSHeraldNetwork.host[5] fwdAvgHopsTravelled:last 3.1408819133034
attr source sum(fwdHopsTravelled)/sum(fwdHopsTravelledCount)
attr title "Average Hops Travelled, last"
scalar OPSHeraldNetwork.host[5] fwdTotalBytesReceived:last 67089978
attr source sum(fwdTotalBytesReceived)
attr title "Total Received, last"
attr unit byte
scalar OPSHeraldNetwork.host[5] fwdDPTableDataBytesReceived:last -nan
attr source sum(fwdDPTableDataBytesReceived)
attr title "DP Table Data Received, last"
attr unit byte
scalar OPSHeraldNetwork.host[5] fwdDPTableRequestBytesReceived:last -nan
attr source sum(fwdDPTableRequestBytesReceived)
attr title "DP Table Requests Received, last"
attr unit byte
scalar OPSHeraldNetwork.host[5] fwdDataReqBytesReceived:last -nan
attr source sum(fwdDataReqBytesReceived)
attr title "Data Requests Received, last"
attr unit byte
scalar OPSHeraldNetwork.host[5] fwdSumVecBytesReceived:last -nan
attr source sum(fwdSumVecBytesReceived)
attr title "Summary Vectors Received, last"
attr unit byte
scalar OPSHeraldNetwork.host[5] fwdDataBytesReceived:last 67089978
attr source sum(fwdDataBytesReceived)
attr title "Data Received, last"
attr unit byte
scalar OPSHeraldNetwork.host[5] appTotalDataCountReceived2:last 2591
attr source sum(appTotalDataCountReceived2)
scalar OPSHeraldNetwork.host[5] appTotalDataBytesReceived2:last 64765979
attr source sum(appTotalDataBytesReceived2)
scalar OPSHeraldNetwork.host[5] appTotalDataReceivedDelay2:mean 120227.03006561
attr source appTotalDataReceivedDelay2
scalar OPSHeraldNetwork.host[5] appNonLikedDataReceivedDelay2:mean 121017.00466322
attr source appNonLikedDataReceivedDelay2
scalar OPSHeraldNetwork.host[5] appLikedDataReceivedDelay2:mean 117920.44765507
attr source appLikedDataReceivedDelay2
scalar OPSHeraldNetwork.host[5] appTotalDataAvgHopCount:last 3.109224237746
attr source sum(appTotalDataHopsForAvgHopsComp)/sum(appTotalDataHopsCountForAvgHopsComp)
scalar OPSHeraldNetwork.host[5] appNonLikedDataAvgHopCount:last 3.1476683937824
attr source sum(appNonLikedDataHopsForAvgHopsComp)/sum(appNonLikedDataHopsCountForAvgHopsComp)
scalar OPSHeraldNetwork.host[5] appLikedDataAvgHopCount:last 2.9969742813918
attr source sum(appLikedDataHopsForAvgHopsComp)/sum(appLikedDataHopsCountForAvgHopsComp)
scalar OPSHeraldNetwork.host[5] appTotalDataDeliveryRatio:last 0.59949097639981
attr source sum(appTotalDataCountReceivedForRatioComp)/sum(appTotalDataCountMaxReceivableForRatioComp)
scalar OPSHeraldNetwork.host[5] appNonLikedDataDeliveryRatio:last 0.59807871087698
attr source sum(appNonLikedDataCountReceivedForRatioComp)/sum(appNonLikedDataCountMaxReceivableForRatioComp)
scalar OPSHeraldNetwork.host[5] appLikedDataDeliveryRatio:last 0.60365296803653
attr source sum(appLikedDataCountReceivedForRatioComp)/sum(appLikedDataCountMaxReceivableForRatioComp)
scalar OPSHeraldNetwork.host[5] appTotalDataReceivedAvgDelay:last 120227.03006561
attr source sum(appTotalDataReceivedDelay)/sum(appTotalDataCountReceivedForAvgDelayComp)
scalar OPSHeraldNetwork.host[5] appNonLikedDataReceivedAvgDelay:last 121017.00466322
attr source sum(appNonLikedDataReceivedDelay)/sum(appNonLikedDataCountReceivedForAvgDelayComp)
scalar OPSHeraldNetwork.host[5] appLikedDataReceivedAvgDelay:last 117920.44765507
attr source sum(appLikedDataReceivedDelay)/sum(appLikedDataCountReceivedForAvgDelayComp)
scalar OPSHeraldNetwork.host[5] appTotalDataCountMaxReceivable:last 4322
attr source sum(appTotalDataCountMaxReceivable)
scalar OPSHeraldNetwork.host[5] appNonLikedDataCountMaxReceivable:last 3227
attr source sum(appNonLikedDataCountMaxReceivable)
scalar OPSHeraldNetwork.host[5] appLikedDataCountMaxReceivable:last 1095
attr source sum(appLikedDataCountMaxReceivable)
scalar OPSHeraldNetwork.host[5] appTotalDataBytesMaxReceivable:last 108052889
attr source sum(appTotalDataBytesMaxReceivable)
scalar OPSHeraldNetwork.host[5] appNonLikedDataBytesMaxReceivable:last 80582943
attr source sum(appNonLikedDataBytesMaxReceivable)
scalar OPSHeraldNetwork.host[5] appLikedDataBytesMaxReceivable:last 27469946
attr source sum(appLikedDataBytesMaxReceivable)
scalar OPSHeraldNetwork.host[5] appTotalDataCountReceived:last 2676
attr source sum(appTotalDataCountReceived)
scalar OPSHeraldNetwork.host[5] appDuplicateDataCountReceived:last 85
attr source sum(appDuplicateDataCountReceived)
scalar OPSHeraldNetwork.host[5] appNonLikedDataCountReceived:last 1930
attr source sum(appNonLikedDataCountReceived)
scalar OPSHeraldNetwork.host[5] appLikedDataCountReceived:last 661
attr source sum(appLikedDataCountReceived)
scalar OPSHeraldNetwork.host[5] appTotalDataBytesReceived:last 67023078
attr source sum(appTotalDataBytesReceived)
scalar OPSHeraldNetwork.host[5] appDuplicateDataBytesReceived:last 2257099
attr source sum(appDuplicateDataBytesReceived)
scalar OPSHeraldNetwork.host[5] appNonLikedDataBytesReceived:last 48134942
attr source sum(appNonLikedDataBytesReceived)
scalar OPSHeraldNetwork.host[5] appLikedDataBytesReceived:last 16631037
attr source sum(appLikedDataBytesReceived)
scalar OPSHeraldNetwork.host[6].forwarding numEventsHandled 74399
scalar OPSHeraldNetwork.host[6] linkSimpleNeighbourSize:mean 0.2120205026455
attr source linkSimpleNeighSize
attr title "Simple Neighbour Size, mean"
scalar OPSHeraldNetwork.host[6] linkContactCount:last 92
attr source sum(linkContactCount)
attr title "Contact Count, last"
scalar OPSHeraldNetwork.host[6] linkAvgContactDuration:last 715.11956521739
attr source sum(linkContactDuration)/sum(linkContactDurationCount)
attr title "Average Contact Duration, last"
attr unit s
scalar OPSHeraldNetwork.host[6] linkAvgNeighbourSize:last 0.2120205026455
attr source sum(linkNeighSize)/sum(linkNeighSizeCount)
attr title "Average Neighbour Size, last"
scalar OPSHeraldNetwork.host[6] fwdTotalBytesSent:last 35267638
attr source sum(fwdTotalBytesSent)
attr title "Total Sent, last"
attr unit byte
scalar OPSHeraldNetwork.host[6] fwdDPTableDataBytesSent:last -nan
attr source sum(fwdDPTableDataBytesSent)
attr title "DP Table Data Sent, last"
attr unit byte
scalar OPSHeraldNetwork.host[6] fwdDPTableRequestBytesSent:last -nan
attr source sum(fwdDPTableRequestBytesSent)
attr title "DP Table Requests Sent, last"
attr unit byte
scalar OPSHeraldNetwork.host[6] fwdDataReqBytesSent:last -nan
attr source sum(fwdDataReqBytesSent)
attr title "Data Requests Sent, last"
attr unit byte
scalar OPSHeraldNetwork.host[6] fwdSumVecBytesSent:last -nan
attr source sum(fwdSumVecBytesSent)
attr title "Summary Vectors Sent, last"
attr unit byte
scalar OPSHeraldNetwork.host[6] fwdDataBytesSent:last 35267638
attr source sum(fwdDataBytesSent)
attr title "Data Sent, last"
attr unit byte
scalar OPSHeraldNetwork.host[6] fwdCurrentCacheSizeBytes2:last 63111865
attr source fwdCurrentCacheSizeBytes2
attr title "Cache Size, last"
attr unit byte
scalar OPSHeraldNetwork.host[6] fwdCurrentCacheSizeBytes2:mean 31924729.74365
attr source fwdCurrentCacheSizeBytes2
attr title "Cache Size, mean"
attr unit byte
scalar OPSHeraldNetwork.host[6] fwdCurrentCacheSizeBytesPeriodic:last 63111865
attr source fwdCurrentCacheSizeBytesPeriodic
attr title "Periodic Cache Size, last"
attr unit byte
scalar OPSHeraldNetwork.host[6] fwdCurrentCacheSizeBytesPeriodic:mean 27279331.005622
attr source fwdCurrentCacheSizeBytesPeriodic
attr title "Periodic Cache Size, mean"
attr unit byte
scalar OPSHeraldNetwork.host[6] fwdCurrentCacheSizeBytesAvg:last 31924729.74365
attr source sum(fwdCurrentCacheSizeBytes)/sum(fwdCurrentCacheSizeReportedCount)
attr title "Average Cache Size, last"
attr unit byte
scalar OPSHeraldNetwork.host[6] fwdCacheBytesUpdated:last 885675
attr source sum(fwdCacheBytesUpdated)
attr title "Cache Updates, last"
attr unit byte
scalar OPSHeraldNetwork.host[6] fwdCacheBytesAdded:last 63111865
attr source sum(fwdCacheBytesAdded)
attr title "Cache Additions, last"
attr unit byte
scalar OPSHeraldNetwork.host[6] fwdCacheBytesRemoved:last -nan
attr source sum(fwdCacheBytesRemoved)
attr title "Cache Removals, last"
attr unit byte
scalar OPSHeraldNetwork.host[6] fwdAvgHopsTravelled:last 3.4858642972536
attr source sum(fwdHopsTravelled)/sum(fwdHopsTravelledCount)
attr title "Average Hops Travelled, last"
scalar OPSHeraldNetwork.host[6] fwdTotalBytesReceived:last 61874284
attr source sum(fwdTotalBytesReceived)
attr title "Total Received, last"
attr unit byte
scalar OPSHeraldNetwork.host[6] fwdDPTableDataBytesReceived:last -nan
attr source sum(fwdDPTableDataBytesReceived)
attr title "DP Table Data Received, last"
attr unit byte
scalar OPSHeraldNetwork.host[6] fwdDPTableRequestBytesReceived:last -nan
attr source sum(fwdDPTableRequestBytesReceived)
attr title "DP Table Requests Received, last"
attr unit byte
scalar OPSHeraldNetwork.host[6] fwdDataReqBytesReceived:last -nan
attr source sum(fwdDataReqBytesReceived)
attr title "Data Requests Received, last"
attr unit byte
scalar OPSHeraldNetwork.host[6] fwdSumVecBytesReceived:last -nan
attr source sum(fwdSumVecBytesReceived)
attr title "Summary Vectors Received, last"
attr unit byte
scalar OPSHeraldNetwork.host[6] fwdDataBytesReceived:last 61874284
attr source sum(fwdDataBytesReceived)
attr title "Data Received, last"
attr unit byte
scalar OPSHeraldNetwork.host[6] appTotalDataCountReceived2:last 2444
attr source sum(appTotalDataCountReceived2)
scalar OPSHeraldNetwork.host[6] appTotalDataBytesReceived2:last 60926709
attr source sum(appTotalDataBytesReceived2)
scalar OPSHeraldNetwork.host[6] appTotalDataReceivedDelay2:mean 114285.6193126
attr source appTotalDataReceivedDelay2
scalar OPSHeraldNetwork.host[6] appNonLikedDataReceivedDelay2:mean 113951.55895317
attr source appNonLikedDataReceivedDelay2
scalar OPSHeraldNetwork.host[6] appLikedDataReceivedDelay2:mean 115249.56136725
attr source appLikedDataReceivedDelay2
scalar OPSHeraldNetwork.host[6] appTotalDataAvgHopCount:last 3.4815875613748
attr source sum(appTotalDataHopsForAvgHopsComp)/sum(appTotalDataHopsCountForAvgHopsComp)
scalar OPSHeraldNetwork.host[6] appNonLikedDataAvgHopCount:last 3.5090909090909
attr source sum(appNonLikedDataHopsForAvgHopsComp)/sum(appNonLikedDataHopsCountForAvgHopsComp)
scalar OPSHeraldNetwork.host[6] appLikedDataAvgHopCount:last 3.4022257551669
attr source sum(appLikedDataHopsForAvgHopsComp)/sum(appLikedDataHopsCountForAvgHopsComp)
scalar OPSHeraldNetwork.host[6] appTotalDataDeliveryRatio:last 0.56417359187442
attr source sum(appTotalDataCountReceivedForRatioComp)/sum(appTotalDataCountMaxReceivableForRatioComp)
scalar OPSHeraldNetwork.host[6] appNonLikedDataDeliveryRatio:last 0.56157178217822
attr source sum(appNonLikedDataCountReceivedForRatioComp)/sum(appNonLikedDataCountMaxReceivableForRatioComp)
scalar OPSHeraldNetwork.host[6] appLikedDataDeliveryRatio:last 0.57181818181818
attr source sum(appLikedDataCountReceivedForRatioComp)/sum(appLikedDataCountMaxReceivableForRatioComp)
scalar OPSHeraldNetwork.host[6] appTotalDataReceivedAvgDelay:last 114285.6193126
attr source sum(appTotalDataReceivedDelay)/sum(appTotalDataCountReceivedForAvgDelayComp)
scalar OPSHeraldNetwork.host[6] appNonLikedDataReceivedAvgDelay:last 113951.55895317
attr source sum(appNonLikedDataReceivedDelay)/sum(appNonLikedDataCountReceivedForAvgDelayComp)
scalar OPSHeraldNetwork.host[6] appLikedDataReceivedAvgDelay:last 115249.56136725
attr source sum(appLikedDataReceivedDelay)/sum(appLikedDataCountReceivedForAvgDelayComp)
scalar OPSHeraldNetwork.host[6] appTotalDataCountMaxReceivable:last 4332
attr source sum(appTotalDataCountMaxReceivable)
scalar OPSHeraldNetwork.host[6] appNonLikedDataCountMaxReceivable:last 3232
attr source sum(appNonLikedDataCountMaxReceivable)
scalar OPSHeraldNetwork.host[6] appLikedDataCountMaxReceivable:last 1100
attr source sum(appLikedDataCountMaxReceivable)
scalar OPSHeraldNetwork.host[6] appTotalDataBytesMaxReceivable:last 108284597
attr source sum(appTotalDataBytesMaxReceivable)
scalar OPSHeraldNetwork.host[6] appNonLikedDataBytesMaxReceivable:last 80718092
attr source sum(appNonLikedDataBytesMaxReceivable)
scalar OPSHeraldNetwork.host[6] appLikedDataBytesMaxReceivable:last 27566505
attr source sum(appLikedDataBytesMaxReceivable)
scalar OPSHeraldNetwork.host[6] appTotalDataCountReceived:last 2476
attr source sum(appTotalDataCountReceived)
scalar OPSHeraldNetwork.host[6] appDuplicateDataCountReceived:last 32
attr source sum(appDuplicateDataCountReceived)
scalar OPSHeraldNetwork.host[6] appNonLikedDataCountReceived:last 1815
attr source sum(appNonLikedDataCountReceived)
scalar OPSHeraldNetwork.host[6] appLikedDataCountReceived:last 629
attr source sum(appLikedDataCountReceived)
scalar OPSHeraldNetwork.host[6] appTotalDataBytesReceived:last 61812384
attr source sum(appTotalDataBytesReceived)
scalar OPSHeraldNetwork.host[6] appDuplicateDataBytesReceived:last 885675
attr source sum(appDuplicateDataBytesReceived)
scalar OPSHeraldNetwork.host[6] appNonLikedDataBytesReceived:last 45138822
attr source sum(appNonLikedDataBytesReceived)
scalar OPSHeraldNetwork.host[6] appLikedDataBytesReceived:last 15787887
attr source sum(appLikedDataBytesReceived)
scalar OPSHeraldNetwork.host[7].forwarding numEventsHandled 6140
scalar OPSHeraldNetwork.host[7] linkSimpleNeighbourSize:mean 0
attr source linkSimpleNeighSize
attr title "Simple Neighbour Size, mean"
scalar OPSHeraldNetwork.host[7] linkContactCount:last -nan
attr source sum(linkContactCount)
attr title "Contact Count, last"
scalar OPSHeraldNetwork.host[7] linkAvgContactDuration:last -nan
attr source sum(linkContactDuration)/sum(linkContactDurationCount)
attr title "Average Contact Duration, last"
attr unit s
scalar OPSHeraldNetwork.host[7] linkAvgNeighbourSize:last 0
attr source sum(linkNeighSize)/sum(linkNeighSizeCount)
attr title "Average Neighbour Size, last"
scalar OPSHeraldNetwork.host[7] fwdTotalBytesSent:last -nan
attr source sum(fwdTotalBytesSent)
attr title "Total Sent, last"
attr unit byte
scalar OPSHeraldNetwork.host[7] fwdDPTableDataBytesSent:last -nan
attr source sum(fwdDPTableDataBytesSent)
attr title "DP Table Data Sent, last"
attr unit byte
scalar OPSHeraldNetwork.host[7] fwdDPTableRequestBytesSent:last -nan
attr source sum(fwdDPTableRequestBytesSent)
attr title "DP Table Requests Sent, last"
attr unit byte
scalar OPSHeraldNetwork.host[7] fwdDataReqBytesSent:last -nan
attr source sum(fwdDataReqBytesSent)
attr title "Data Requests Sent, last"
attr unit byte
scalar OPSHeraldNetwork.host[7] fwdSumVecBytesSent:last -nan
attr source sum(fwdSumVecBytesSent)
attr title "Summary Vectors Sent, last"
attr unit byte
scalar OPSHeraldNetwork.host[7] fwdDataBytesSent:last -nan
attr source sum(fwdDataBytesSent)
attr title "Data Sent, last"
attr unit byte
scalar OPSHeraldNetwork.host[7] fwdCurrentCacheSizeBytes2:last 2321061
attr source fwdCurrentCacheSizeBytes2
attr title "Cache Size, last"
attr unit byte
scalar OPSHeraldNetwork.host[7] fwdCurrentCacheSizeBytes2:mean 1174802.4945055
attr source fwdCurrentCacheSizeBytes2
attr title "Cache Size, mean"
attr unit byte
scalar OPSHeraldNetwork.host[7] fwdCurrentCacheSizeBytesPeriodic:last 2321061
attr source fwdCurrentCacheSizeBytesPeriodic
attr title "Periodic Cache Size, last"
attr unit byte
scalar OPSHeraldNetwork.host[7] fwdCurrentCacheSizeBytesPeriodic:mean 1097194.505291
attr source fwdCurrentCacheSizeBytesPeriodic
attr title "Periodic Cache Size, mean"
attr unit byte
scalar OPSHeraldNetwork.host[7] fwdCurrentCacheSizeBytesAvg:last 1174802.4945055
attr source sum(fwdCurrentCacheSizeBytes)/sum(fwdCurrentCacheSizeReportedCount)
attr title "Average Cache Size, last"
attr unit byte
scalar OPSHeraldNetwork.host[7] fwdCacheBytesUpdated:last -nan
attr source sum(fwdCacheBytesUpdated)
attr title "Cache Updates, last"
attr unit byte
scalar OPSHeraldNetwork.host[7] fwdCacheBytesAdded:last 2321061
attr source sum(fwdCacheBytesAdded)
attr title "Cache Additions, last"
attr unit byte
scalar OPSHeraldNetwork.host[7] fwdCacheBytesRemoved:last -nan
attr source sum(fwdCacheBytesRemoved)
attr title "Cache Removals, last"
attr unit byte
scalar OPSHeraldNetwork.host[7] fwdAvgHopsTravelled:last -nan
attr source sum(fwdHopsTravelled)/sum(fwdHopsTravelledCount)
attr title "Average Hops Travelled, last"
scalar OPSHeraldNetwork.host[7] fwdTotalBytesReceived:last -nan
attr source sum(fwdTotalBytesReceived)
attr title "Total Received, last"
attr unit byte
scalar OPSHeraldNetwork.host[7] fwdDPTableDataBytesReceived:last -nan
attr source sum(fwdDPTableDataBytesReceived)
attr title "DP Table Data Received, last"
attr unit byte
scalar OPSHeraldNetwork.host[7] fwdDPTableRequestBytesReceived:last -nan
attr source sum(fwdDPTableRequestBytesReceived)
attr title "DP Table Requests Received, last"
attr unit byte
scalar OPSHeraldNetwork.host[7] fwdDataReqBytesReceived:last -nan
attr source sum(fwdDataReqBytesReceived)
attr title "Data Requests Received, last"
attr unit byte
scalar OPSHeraldNetwork.host[7] fwdSumVecBytesReceived:last -nan
attr source sum(fwdSumVecBytesReceived)
attr title "Summary Vectors Received, last"
attr unit byte
scalar OPSHeraldNetwork.host[7] fwdDataBytesReceived:last -nan
attr source sum(fwdDataBytesReceived)
attr title "Data Received, last"
attr unit byte
scalar OPSHeraldNetwork.host[7] appTotalDataCountReceived2:last -nan
attr source sum(appTotalDataCountReceived2)
scalar OPSHeraldNetwork.host[7] appTotalDataBytesReceived2:last -nan
attr source sum(appTotalDataBytesReceived2)
scalar OPSHeraldNetwork.host[7] appTotalDataReceivedDelay2:mean -nan
attr source appTotalDataReceivedDelay2
scalar OPSHeraldNetwork.host[7] appNonLikedDataReceivedDelay2:mean -nan
attr source appNonLikedDataReceivedDelay2
scalar OPSHeraldNetwork.host[7] appLikedDataReceivedDelay2:mean -nan
attr source appLikedDataReceivedDelay2
scalar OPSHeraldNetwork.host[7] appTotalDataAvgHopCount:last -nan
attr source sum(appTotalDataHopsForAvgHopsComp)/sum(appTotalDataHopsCountForAvgHopsComp)
scalar OPSHeraldNetwork.host[7] appNonLikedDataAvgHopCount:last -nan
attr source sum(appNonLikedDataHopsForAvgHopsComp)/sum(appNonLikedDataHopsCountForAvgHopsComp)
scalar OPSHeraldNetwork.host[7] appLikedDataAvgHopCount:last -nan
attr source sum(appLikedDataHopsForAvgHopsComp)/sum(appLikedDataHopsCountForAvgHopsComp)
scalar OPSHeraldNetwork.host[7] appTotalDataDeliveryRatio:last -nan
attr source sum(appTotalDataCountReceivedForRatioComp)/sum(appTotalDataCountMaxReceivableForRatioComp)
scalar OPSHeraldNetwork.host[7] appNonLikedDataDeliveryRatio:last -nan
attr source sum(appNonLikedDataCountReceivedForRatioComp)/sum(appNonLikedDataCountMaxReceivableForRatioComp)
scalar OPSHeraldNetwork.host[7] appLikedDataDeliveryRatio:last -nan
attr source sum(appLikedDataCountReceivedForRatioComp)/sum(appLikedDataCountMaxReceivableForRatioComp)
scalar OPSHeraldNetwork.host[7] appTotalDataReceivedAvgDelay:last -nan
attr source sum(appTotalDataReceivedDelay)/sum(appTotalDataCountReceivedForAvgDelayComp)
scalar OPSHeraldNetwork.host[7] appNonLikedDataReceivedAvgDelay:last -nan
attr source sum(appNonLikedDataReceivedDelay)/sum(appNonLikedDataCountReceivedForAvgDelayComp)
scalar OPSHeraldNetwork.host[7] appLikedDataReceivedAvgDelay:last -nan
attr source sum(appLikedDataReceivedDelay)/sum(appLikedDataCountReceivedForAvgDelayComp)
scalar OPSHeraldNetwork.host[7] appTotalDataCountMaxReceivable:last 4324
attr source sum(appTotalDataCountMaxReceivable)
scalar OPSHeraldNetwork.host[7] appNonLikedDataCountMaxReceivable:last 3228
attr source sum(appNonLikedDataCountMaxReceivable)
scalar OPSHeraldNetwork.host[7] appLikedDataCountMaxReceivable:last 1096
attr source sum(appLikedDataCountMaxReceivable)
scalar OPSHeraldNetwork.host[7] appTotalDataBytesMaxReceivable:last 108148692
attr source sum(appTotalDataBytesMaxReceivable)
scalar OPSHeraldNetwork.host[7] appNonLikedDataBytesMaxReceivable:last 80678244
attr source sum(appNonLikedDataBytesMaxReceivable)
scalar OPSHeraldNetwork.host[7] appLikedDataBytesMaxReceivable:last 27470448
attr source sum(appLikedDataBytesMaxReceivable)
scalar OPSHeraldNetwork.host[7] appTotalDataCountReceived:last -nan
attr source sum(appTotalDataCountReceived)
scalar OPSHeraldNetwork.host[7] appDuplicateDataCountReceived:last -nan
attr source sum(appDuplicateDataCountReceived)
scalar OPSHeraldNetwork.host[7] appNonLikedDataCountReceived:last -nan
attr source sum(appNonLikedDataCountReceived)
scalar OPSHeraldNetwork.host[7] appLikedDataCountReceived:last -nan
attr source sum(appLikedDataCountReceived)
scalar OPSHeraldNetwork.host[7] appTotalDataBytesReceived:last -nan
attr source sum(appTotalDataBytesReceived)
scalar OPSHeraldNetwork.host[7] appDuplicateDataBytesReceived:last -nan
attr source sum(appDuplicateDataBytesReceived)
scalar OPSHeraldNetwork.host[7] appNonLikedDataBytesReceived:last -nan
attr source sum(appNonLikedDataBytesReceived)
scalar OPSHeraldNetwork.host[7] appLikedDataBytesReceived:last -nan
attr source sum(appLikedDataBytesReceived)
scalar OPSHeraldNetwork.host[8].forwarding numEventsHandled 90471
scalar OPSHeraldNetwork.host[8] linkSimpleNeighbourSize:mean 0.26881613756614
attr source linkSimpleNeighSize
attr title "Simple Neighbour Size, mean"
scalar OPSHeraldNetwork.host[8] linkContactCount:last 138
attr source sum(linkContactCount)
attr title "Contact Count, last"
scalar OPSHeraldNetwork.host[8] linkAvgContactDuration:last 588.75362318841
attr source sum(linkContactDuration)/sum(linkContactDurationCount)
attr title "Average Contact Duration, last"
attr unit s
scalar OPSHeraldNetwork.host[8] linkAvgNeighbourSize:last 0.26881613756614
attr source sum(linkNeighSize)/sum(linkNeighSizeCount)
attr title "Average Neighbour Size, last"
scalar OPSHeraldNetwork.host[8] fwdTotalBytesSent:last 47075018
attr source sum(fwdTotalBytesSent)
attr title "Total Sent, last"
attr unit byte
scalar OPSHeraldNetwork.host[8] fwdDPTableDataBytesSent:last -nan
attr source sum(fwdDPTableDataBytesSent)
attr title "DP Table Data Sent, last"
attr unit byte
scalar OPSHeraldNetwork.host[8] fwdDPTableRequestBytesSent:last -nan
attr source sum(fwdDPTableRequestBytesSent)
attr title "DP Table Requests Sent, last"
attr unit byte
scalar OPSHeraldNetwork.host[8] fwdDataReqBytesSent:last -nan
attr source sum(fwdDataReqBytesSent)
attr title "Data Requests Sent, last"
attr unit byte
scalar OPSHeraldNetwork.host[8] fwdSumVecBytesSent:last -nan
attr source sum(fwdSumVecBytesSent)
attr title "Summary Vectors Sent, last"
attr unit byte
scalar OPSHeraldNetwork.host[8] fwdDataBytesSent:last 47075018
attr source sum(fwdDataBytesSent)
attr title "Data Sent, last"
attr unit byte
scalar OPSHeraldNetwork.host[8] fwdCurrentCacheSizeBytes2:last 78806962
attr source fwdCurrentCacheSizeBytes2
attr title "Cache Size, last"
attr unit byte
scalar OPSHeraldNetwork.host[8] fwdCurrentCacheSizeBytes2:mean 39288248.419975
attr source fwdCurrentCacheSizeBytes2
attr title "Cache Size, mean"
attr unit byte
scalar OPSHeraldNetwork.host[8] fwdCurrentCacheSizeBytesPeriodic:last 78806962
attr source fwdCurrentCacheSizeBytesPeriodic
attr title "Periodic Cache Size, last"
attr unit byte
scalar OPSHeraldNetwork.host[8] fwdCurrentCacheSizeBytesPeriodic:mean 25293399.843254
attr source fwdCurrentCacheSizeBytesPeriodic
attr title "Periodic Cache Size, mean"
attr unit byte
scalar OPSHeraldNetwork.host[8] fwdCurrentCacheSizeBytesAvg:last 39288248.419975
attr source sum(fwdCurrentCacheSizeBytes)/sum(fwdCurrentCacheSizeReportedCount)
attr title "Average Cache Size, last"
attr unit byte
scalar OPSHeraldNetwork.host[8] fwdCacheBytesUpdated:last 901337
attr source sum(fwdCacheBytesUpdated)
attr title "Cache Updates, last"
attr unit byte
scalar OPSHeraldNetwork.host[8] fwdCacheBytesAdded:last 78806962
attr source sum(fwdCacheBytesAdded)
attr title "Cache Additions, last"
attr unit byte
scalar OPSHeraldNetwork.host[8] fwdCacheBytesRemoved:last -nan
attr source sum(fwdCacheBytesRemoved)
attr title "Cache Removals, last"
attr unit byte
scalar OPSHeraldNetwork.host[8] fwdAvgHopsTravelled:last 3.9185329438494
attr source sum(fwdHopsTravelled)/sum(fwdHopsTravelledCount)
attr title "Average Hops Travelled, last"
scalar OPSHeraldNetwork.host[8] fwdTotalBytesReceived:last 77206789
attr source sum(fwdTotalBytesReceived)
attr title "Total Received, last"
attr unit byte
scalar OPSHeraldNetwork.host[8] fwdDPTableDataBytesReceived:last -nan
attr source sum(fwdDPTableDataBytesReceived)
attr title "DP Table Data Received, last"
attr unit byte
scalar OPSHeraldNetwork.host[8] fwdDPTableRequestBytesReceived:last -nan
attr source sum(fwdDPTableRequestBytesReceived)
attr title "DP Table Requests Received, last"
attr unit byte
scalar OPSHeraldNetwork.host[8] fwdDataReqBytesReceived:last -nan
attr source sum(fwdDataReqBytesReceived)
attr title "Data Requests Received, last"
attr unit byte
scalar OPSHeraldNetwork.host[8] fwdSumVecBytesReceived:last -nan
attr source sum(fwdSumVecBytesReceived)
attr title "Summary Vectors Received, last"
attr unit byte
scalar OPSHeraldNetwork.host[8] fwdDataBytesReceived:last 77206789
attr source sum(fwdDataBytesReceived)
attr title "Data Received, last"
attr unit byte
scalar OPSHeraldNetwork.host[8] appTotalDataCountReceived2:last 3048
attr source sum(appTotalDataCountReceived2)
scalar OPSHeraldNetwork.host[8] appTotalDataBytesReceived2:last 76228427
attr source sum(appTotalDataBytesReceived2)
scalar OPSHeraldNetwork.host[8] appTotalDataReceivedDelay2:mean 137730.0945538
attr source appTotalDataReceivedDelay2
scalar OPSHeraldNetwork.host[8] appNonLikedDataReceivedDelay2:mean 137696.85046032
attr source appNonLikedDataReceivedDelay2
scalar OPSHeraldNetwork.host[8] appLikedDataReceivedDelay2:mean 137828.95997393
attr source appLikedDataReceivedDelay2
scalar OPSHeraldNetwork.host[8] appTotalDataAvgHopCount:last 3.9078083989501
attr source sum(appTotalDataHopsForAvgHopsComp)/sum(appTotalDataHopsCountForAvgHopsComp)
scalar OPSHeraldNetwork.host[8] appNonLikedDataAvgHopCount:last 3.9070583077598
attr source sum(appNonLikedDataHopsForAvgHopsComp)/sum(appNonLikedDataHopsCountForAvgHopsComp)
scalar OPSHeraldNetwork.host[8] appLikedDataAvgHopCount:last 3.9100391134289
attr source sum(appLikedDataHopsForAvgHopsComp)/sum(appLikedDataHopsCountForAvgHopsComp)
scalar OPSHeraldNetwork.host[8] appTotalDataDeliveryRatio:last 0.70522906062008
attr source sum(appTotalDataCountReceivedForRatioComp)/sum(appTotalDataCountMaxReceivableForRatioComp)
scalar OPSHeraldNetwork.host[8] appNonLikedDataDeliveryRatio:last 0.70684846606756
attr source sum(appNonLikedDataCountReceivedForRatioComp)/sum(appNonLikedDataCountMaxReceivableForRatioComp)
scalar OPSHeraldNetwork.host[8] appLikedDataDeliveryRatio:last 0.70045662100457
attr source sum(appLikedDataCountReceivedForRatioComp)/sum(appLikedDataCountMaxReceivableForRatioComp)
scalar OPSHeraldNetwork.host[8] appTotalDataReceivedAvgDelay:last 137730.0945538
attr source sum(appTotalDataReceivedDelay)/sum(appTotalDataCountReceivedForAvgDelayComp)
scalar OPSHeraldNetwork.host[8] appNonLikedDataReceivedAvgDelay:last 137696.85046032
attr source sum(appNonLikedDataReceivedDelay)/sum(appNonLikedDataCountReceivedForAvgDelayComp)
scalar OPSHeraldNetwork.host[8] appLikedDataReceivedAvgDelay:last 137828.95997393
attr source sum(appLikedDataReceivedDelay)/sum(appLikedDataCountReceivedForAvgDelayComp)
scalar OPSHeraldNetwork.host[8] appTotalDataCountMaxReceivable:last 4322
attr source sum(appTotalDataCountMaxReceivable)
scalar OPSHeraldNetwork.host[8] appNonLikedDataCountMaxReceivable:last 3227
attr source sum(appNonLikedDataCountMaxReceivable)
scalar OPSHeraldNetwork.host[8] appLikedDataCountMaxReceivable:last 1095
attr source sum(appLikedDataCountMaxReceivable)
scalar OPSHeraldNetwork.host[8] appTotalDataBytesMaxReceivable:last 107891218
attr source sum(appTotalDataBytesMaxReceivable)
scalar OPSHeraldNetwork.host[8] appNonLikedDataBytesMaxReceivable:last 80368250
attr source sum(appNonLikedDataBytesMaxReceivable)
scalar OPSHeraldNetwork.host[8] appLikedDataBytesMaxReceivable:last 27522968
attr source sum(appLikedDataBytesMaxReceivable)
scalar OPSHeraldNetwork.host[8] appTotalDataCountReceived:last 3081
attr source sum(appTotalDataCountReceived)
scalar OPSHeraldNetwork.host[8] appDuplicateDataCountReceived:last 33
attr source sum(appDuplicateDataCountReceived)
scalar OPSHeraldNetwork.host[8] appNonLikedDataCountReceived:last 2281
attr source sum(appNonLikedDataCountReceived)
scalar OPSHeraldNetwork.host[8] appLikedDataCountReceived:last 767
attr source sum(appLikedDataCountReceived)
scalar OPSHeraldNetwork.host[8] appTotalDataBytesReceived:last 77129764
attr source sum(appTotalDataBytesReceived)
scalar OPSHeraldNetwork.host[8] appDuplicateDataBytesReceived:last 901337
attr source sum(appDuplicateDataBytesReceived)
scalar OPSHeraldNetwork.host[8] appNonLikedDataBytesReceived:last 56884463
attr source sum(appNonLikedDataBytesReceived)
scalar OPSHeraldNetwork.host[8] appLikedDataBytesReceived:last 19343964
attr source sum(appLikedDataBytesReceived)
scalar OPSHeraldNetwork.host[9].forwarding numEventsHandled 142967
scalar OPSHeraldNetwork.host[9] linkSimpleNeighbourSize:mean 0.57519014550265
attr source linkSimpleNeighSize
attr title "Simple Neighbour Size, mean"
scalar OPSHeraldNetwork.host[9] linkContactCount:last 102
attr source sum(linkContactCount)
attr title "Contact Count, last"
scalar OPSHeraldNetwork.host[9] linkAvgContactDuration:last 1309.3235294118
attr source sum(linkContactDuration)/sum(linkContactDurationCount)
attr title "Average Contact Duration, last"
attr unit s
scalar OPSHeraldNetwork.host[9] linkAvgNeighbourSize:last 0.57519014550265
attr source sum(linkNeighSize)/sum(linkNeighSizeCount)
attr title "Average Neighbour Size, last"
scalar OPSHeraldNetwork.host[9] fwdTotalBytesSent:last 51275015
attr source sum(fwdTotalBytesSent)
attr title "Total Sent, last"
attr unit byte
scalar OPSHeraldNetwork.host[9] fwdDPTableDataBytesSent:last -nan
attr source sum(fwdDPTableDataBytesSent)
attr title "DP Table Data Sent, last"
attr unit byte
scalar OPSHeraldNetwork.host[9] fwdDPTableRequestBytesSent:last -nan
attr source sum(fwdDPTableRequestBytesSent)
attr title "DP Table Requests Sent, last"
attr unit byte
scalar OPSHeraldNetwork.host[9] fwdDataReqBytesSent:last -nan
attr source sum(fwdDataReqBytesSent)
attr title "Data Requests Sent, last"
attr unit byte
scalar OPSHeraldNetwork.host[9] fwdSumVecBytesSent:last -nan
attr source sum(fwdSumVecBytesSent)
attr title "Summary Vectors Sent, last"
attr unit byte
scalar OPSHeraldNetwork.host[9] fwdDataBytesSent:last 51275015
attr source sum(fwdDataBytesSent)
attr title "Data Sent, last"
attr unit byte
scalar OPSHeraldNetwork.host[9] fwdCurrentCacheSizeBytes2:last 78409771
attr source fwdCurrentCacheSizeBytes2
attr title "Cache Size, last"
attr unit byte
scalar OPSHeraldNetwork.host[9] fwdCurrentCacheSizeBytes2:mean 40329050.539947
attr source fwdCurrentCacheSizeBytes2
attr title "Cache Size, mean"
attr unit byte
scalar OPSHeraldNetwork.host[9] fwdCurrentCacheSizeBytesPeriodic:last 78409771
attr source fwdCurrentCacheSizeBytesPeriodic
attr title "Periodic Cache Size, last"
attr unit byte
scalar OPSHeraldNetwork.host[9] fwdCurrentCacheSizeBytesPeriodic:mean 28348714.294147
attr source fwdCurrentCacheSizeBytesPeriodic
attr title "Periodic Cache Size, mean"
attr unit byte
scalar OPSHeraldNetwork.host[9] fwdCurrentCacheSizeBytesAvg:last 40329050.539947
attr source sum(fwdCurrentCacheSizeBytes)/sum(fwdCurrentCacheSizeReportedCount)
attr title "Average Cache Size, last"
attr unit byte
scalar OPSHeraldNetwork.host[9] fwdCacheBytesUpdated:last 5880188
attr source sum(fwdCacheBytesUpdated)
attr title "Cache Updates, last"
attr unit byte
scalar OPSHeraldNetwork.host[9] fwdCacheBytesAdded:last 78409771
attr source sum(fwdCacheBytesAdded)
attr title "Cache Additions, last"
attr unit byte
scalar OPSHeraldNetwork.host[9] fwdCacheBytesRemoved:last -nan
attr source sum(fwdCacheBytesRemoved)
attr title "Cache Removals, last"
attr unit byte
scalar OPSHeraldNetwork.host[9] fwdAvgHopsTravelled:last 3.0076219512195
attr source sum(fwdHopsTravelled)/sum(fwdHopsTravelledCount)
attr title "Average Hops Travelled, last"
scalar OPSHeraldNetwork.host[9] fwdTotalBytesReceived:last 82117767
attr source sum(fwdTotalBytesReceived)
attr title "Total Received, last"
attr unit byte
scalar OPSHeraldNetwork.host[9] fwdDPTableDataBytesReceived:last -nan
attr source sum(fwdDPTableDataBytesReceived)
attr title "DP Table Data Received, last"
attr unit byte
scalar OPSHeraldNetwork.host[9] fwdDPTableRequestBytesReceived:last -nan
attr source sum(fwdDPTableRequestBytesReceived)
attr title "DP Table Requests Received, last"
attr unit byte
scalar OPSHeraldNetwork.host[9] fwdDataReqBytesReceived:last -nan
attr source sum(fwdDataReqBytesReceived)
attr title "Data Requests Received, last"
attr unit byte
scalar OPSHeraldNetwork.host[9] fwdSumVecBytesReceived:last -nan
attr source sum(fwdSumVecBytesReceived)
attr title "Summary Vectors Received, last"
attr unit byte
scalar OPSHeraldNetwork.host[9] fwdDataBytesReceived:last 82117767
attr source sum(fwdDataBytesReceived)
attr title "Data Received, last"
attr unit byte
scalar OPSHeraldNetwork.host[9] appTotalDataCountReceived2:last 3042
attr source sum(appTotalDataCountReceived2)
scalar OPSHeraldNetwork.host[9] appTotalDataBytesReceived2:last 76155579
attr source sum(appTotalDataBytesReceived2)
scalar OPSHeraldNetwork.host[9] appTotalDataReceivedDelay2:mean 113545.05811965
attr source appTotalDataReceivedDelay2
scalar OPSHeraldNetwork.host[9] appNonLikedDataReceivedDelay2:mean 114284.83739055
attr source appNonLikedDataReceivedDelay2
scalar OPSHeraldNetwork.host[9] appLikedDataReceivedDelay2:mean 111315.96068602
attr source appLikedDataReceivedDelay2
scalar OPSHeraldNetwork.host[9] appTotalDataAvgHopCount:last 2.9460880999343
attr source sum(appTotalDataHopsForAvgHopsComp)/sum(appTotalDataHopsCountForAvgHopsComp)
scalar OPSHeraldNetwork.host[9] appNonLikedDataAvgHopCount:last 2.9614711033275
attr source sum(appNonLikedDataHopsForAvgHopsComp)/sum(appNonLikedDataHopsCountForAvgHopsComp)
scalar OPSHeraldNetwork.host[9] appLikedDataAvgHopCount:last 2.8997361477573
attr source sum(appLikedDataHopsForAvgHopsComp)/sum(appLikedDataHopsCountForAvgHopsComp)
scalar OPSHeraldNetwork.host[9] appTotalDataDeliveryRatio:last 0.70286506469501
attr source sum(appTotalDataCountReceivedForRatioComp)/sum(appTotalDataCountMaxReceivableForRatioComp)
scalar OPSHeraldNetwork.host[9] appNonLikedDataDeliveryRatio:last 0.70472076519593
attr source sum(appNonLikedDataCountReceivedForRatioComp)/sum(appNonLikedDataCountMaxReceivableForRatioComp)
scalar OPSHeraldNetwork.host[9] appLikedDataDeliveryRatio:last 0.69733210671573
attr source sum(appLikedDataCountReceivedForRatioComp)/sum(appLikedDataCountMaxReceivableForRatioComp)
scalar OPSHeraldNetwork.host[9] appTotalDataReceivedAvgDelay:last 113545.05811965
attr source sum(appTotalDataReceivedDelay)/sum(appTotalDataCountReceivedForAvgDelayComp)
scalar OPSHeraldNetwork.host[9] appNonLikedDataReceivedAvgDelay:last 114284.83739055
attr source sum(appNonLikedDataReceivedDelay)/sum(appNonLikedDataCountReceivedForAvgDelayComp)
scalar OPSHeraldNetwork.host[9] appLikedDataReceivedAvgDelay:last 111315.96068602
attr source sum(appLikedDataReceivedDelay)/sum(appLikedDataCountReceivedForAvgDelayComp)
scalar OPSHeraldNetwork.host[9] appTotalDataCountMaxReceivable:last 4328
attr source sum(appTotalDataCountMaxReceivable)
scalar OPSHeraldNetwork.host[9] appNonLikedDataCountMaxReceivable:last 3241
attr source sum(appNonLikedDataCountMaxReceivable)
scalar OPSHeraldNetwork.host[9] appLikedDataCountMaxReceivable:last 1087
attr source sum(appLikedDataCountMaxReceivable)
scalar OPSHeraldNetwork.host[9] appTotalDataBytesMaxReceivable:last 108215561
attr source sum(appTotalDataBytesMaxReceivable)
scalar OPSHeraldNetwork.host[9] appNonLikedDataBytesMaxReceivable:last 80950946
attr source sum(appNonLikedDataBytesMaxReceivable)
scalar OPSHeraldNetwork.host[9] appLikedDataBytesMaxReceivable:last 27264615
attr source sum(appLikedDataBytesMaxReceivable)
scalar OPSHeraldNetwork.host[9] appTotalDataCountReceived:last 3280
attr source sum(appTotalDataCountReceived)
scalar OPSHeraldNetwork.host[9] appDuplicateDataCountReceived:last 238
attr source sum(appDuplicateDataCountReceived)
scalar OPSHeraldNetwork.host[9] appNonLikedDataCountReceived:last 2284
attr source sum(appNonLikedDataCountReceived)
scalar OPSHeraldNetwork.host[9] appLikedDataCountReceived:last 758
attr source sum(appLikedDataCountReceived)
scalar OPSHeraldNetwork.host[9] appTotalDataBytesReceived:last 82035767
attr source sum(appTotalDataBytesReceived)
scalar OPSHeraldNetwork.host[9] appDuplicateDataBytesReceived:last 5880188
attr source sum(appDuplicateDataBytesReceived)
scalar OPSHeraldNetwork.host[9] appNonLikedDataBytesReceived:last 57072506
[...]
attr title "DP Table Requests Received, last"
attr unit byte
scalar OPSHeraldNetwork.host[47] fwdDataReqBytesReceived:last -nan
attr source sum(fwdDataReqBytesReceived)
attr title "Data Requests Received, last"
attr unit byte
scalar OPSHeraldNetwork.host[47] fwdSumVecBytesReceived:last -nan
attr source sum(fwdSumVecBytesReceived)
attr title "Summary Vectors Received, last"
attr unit byte
scalar OPSHeraldNetwork.host[47] fwdDataBytesReceived:last 78573821
attr source sum(fwdDataBytesReceived)
attr title "Data Received, last"
attr unit byte
scalar OPSHeraldNetwork.host[47] appTotalDataCountReceived2:last 3062
attr source sum(appTotalDataCountReceived2)
scalar OPSHeraldNetwork.host[47] appTotalDataBytesReceived2:last 76721069
attr source sum(appTotalDataBytesReceived2)
scalar OPSHeraldNetwork.host[47] appTotalDataReceivedDelay2:mean 118840.53455258
attr source appTotalDataReceivedDelay2
scalar OPSHeraldNetwork.host[47] appNonLikedDataReceivedDelay2:mean 119359.2159269
attr source appNonLikedDataReceivedDelay2
scalar OPSHeraldNetwork.host[47] appLikedDataReceivedDelay2:mean 117280.41701571
attr source appLikedDataReceivedDelay2
scalar OPSHeraldNetwork.host[47] appTotalDataAvgHopCount:last 3.2148922273024
attr source sum(appTotalDataHopsForAvgHopsComp)/sum(appTotalDataHopsCountForAvgHopsComp)
scalar OPSHeraldNetwork.host[47] appNonLikedDataAvgHopCount:last 3.2441253263708
attr source sum(appNonLikedDataHopsForAvgHopsComp)/sum(appNonLikedDataHopsCountForAvgHopsComp)
scalar OPSHeraldNetwork.host[47] appLikedDataAvgHopCount:last 3.1269633507853
attr source sum(appLikedDataHopsForAvgHopsComp)/sum(appLikedDataHopsCountForAvgHopsComp)
scalar OPSHeraldNetwork.host[47] appTotalDataDeliveryRatio:last 0.70814061054579
attr source sum(appTotalDataCountReceivedForRatioComp)/sum(appTotalDataCountMaxReceivableForRatioComp)
scalar OPSHeraldNetwork.host[47] appNonLikedDataDeliveryRatio:last 0.70969734403953
attr source sum(appNonLikedDataCountReceivedForRatioComp)/sum(appNonLikedDataCountMaxReceivableForRatioComp)
scalar OPSHeraldNetwork.host[47] appLikedDataDeliveryRatio:last 0.70349907918969
attr source sum(appLikedDataCountReceivedForRatioComp)/sum(appLikedDataCountMaxReceivableForRatioComp)
scalar OPSHeraldNetwork.host[47] appTotalDataReceivedAvgDelay:last 118840.53455258
attr source sum(appTotalDataReceivedDelay)/sum(appTotalDataCountReceivedForAvgDelayComp)
scalar OPSHeraldNetwork.host[47] appNonLikedDataReceivedAvgDelay:last 119359.2159269
attr source sum(appNonLikedDataReceivedDelay)/sum(appNonLikedDataCountReceivedForAvgDelayComp)
scalar OPSHeraldNetwork.host[47] appLikedDataReceivedAvgDelay:last 117280.41701571
attr source sum(appLikedDataReceivedDelay)/sum(appLikedDataCountReceivedForAvgDelayComp)
scalar OPSHeraldNetwork.host[47] appTotalDataCountMaxReceivable:last 4324
attr source sum(appTotalDataCountMaxReceivable)
scalar OPSHeraldNetwork.host[47] appNonLikedDataCountMaxReceivable:last 3238
attr source sum(appNonLikedDataCountMaxReceivable)
scalar OPSHeraldNetwork.host[47] appLikedDataCountMaxReceivable:last 1086
attr source sum(appLikedDataCountMaxReceivable)
scalar OPSHeraldNetwork.host[47] appTotalDataBytesMaxReceivable:last 108143621
attr source sum(appTotalDataBytesMaxReceivable)
scalar OPSHeraldNetwork.host[47] appNonLikedDataBytesMaxReceivable:last 80911594
attr source sum(appNonLikedDataBytesMaxReceivable)
scalar OPSHeraldNetwork.host[47] appLikedDataBytesMaxReceivable:last 27232027
attr source sum(appLikedDataBytesMaxReceivable)
scalar OPSHeraldNetwork.host[47] appTotalDataCountReceived:last 3129
attr source sum(appTotalDataCountReceived)
scalar OPSHeraldNetwork.host[47] appDuplicateDataCountReceived:last 67
attr source sum(appDuplicateDataCountReceived)
scalar OPSHeraldNetwork.host[47] appNonLikedDataCountReceived:last 2298
attr source sum(appNonLikedDataCountReceived)
scalar OPSHeraldNetwork.host[47] appLikedDataCountReceived:last 764
attr source sum(appLikedDataCountReceived)
scalar OPSHeraldNetwork.host[47] appTotalDataBytesReceived:last 78495596
attr source sum(appTotalDataBytesReceived)
scalar OPSHeraldNetwork.host[47] appDuplicateDataBytesReceived:last 1774527
attr source sum(appDuplicateDataBytesReceived)
scalar OPSHeraldNetwork.host[47] appNonLikedDataBytesReceived:last 57527976
attr source sum(appNonLikedDataBytesReceived)
scalar OPSHeraldNetwork.host[47] appLikedDataBytesReceived:last 19193093
attr source sum(appLikedDataBytesReceived)
scalar OPSHeraldNetwork.host[48].forwarding numEventsHandled 443613
scalar OPSHeraldNetwork.host[48] linkSimpleNeighbourSize:mean 0.82743386243386
attr source linkSimpleNeighSize
attr title "Simple Neighbour Size, mean"
scalar OPSHeraldNetwork.host[48] linkContactCount:last 72
attr source sum(linkContactCount)
attr title "Contact Count, last"
scalar OPSHeraldNetwork.host[48] linkAvgContactDuration:last 6032.9861111111
attr source sum(linkContactDuration)/sum(linkContactDurationCount)
attr title "Average Contact Duration, last"
attr unit s
scalar OPSHeraldNetwork.host[48] linkAvgNeighbourSize:last 0.82743386243386
attr source sum(linkNeighSize)/sum(linkNeighSizeCount)
attr title "Average Neighbour Size, last"
scalar OPSHeraldNetwork.host[48] fwdTotalBytesSent:last 48369206
attr source sum(fwdTotalBytesSent)
attr title "Total Sent, last"
attr unit byte
scalar OPSHeraldNetwork.host[48] fwdDPTableDataBytesSent:last -nan
attr source sum(fwdDPTableDataBytesSent)
attr title "DP Table Data Sent, last"
attr unit byte
scalar OPSHeraldNetwork.host[48] fwdDPTableRequestBytesSent:last -nan
attr source sum(fwdDPTableRequestBytesSent)
attr title "DP Table Requests Sent, last"
attr unit byte
scalar OPSHeraldNetwork.host[48] fwdDataReqBytesSent:last -nan
attr source sum(fwdDataReqBytesSent)
attr title "Data Requests Sent, last"
attr unit byte
scalar OPSHeraldNetwork.host[48] fwdSumVecBytesSent:last -nan
attr source sum(fwdSumVecBytesSent)
attr title "Summary Vectors Sent, last"
attr unit byte
scalar OPSHeraldNetwork.host[48] fwdDataBytesSent:last 48369206
attr source sum(fwdDataBytesSent)
attr title "Data Sent, last"
attr unit byte
scalar OPSHeraldNetwork.host[48] fwdCurrentCacheSizeBytes2:last 79109434
attr source fwdCurrentCacheSizeBytes2
attr title "Cache Size, last"
attr unit byte
scalar OPSHeraldNetwork.host[48] fwdCurrentCacheSizeBytes2:mean 40022205.338037
attr source fwdCurrentCacheSizeBytes2
attr title "Cache Size, mean"
attr unit byte
scalar OPSHeraldNetwork.host[48] fwdCurrentCacheSizeBytesPeriodic:last 79109434
attr source fwdCurrentCacheSizeBytesPeriodic
attr title "Periodic Cache Size, last"
attr unit byte
scalar OPSHeraldNetwork.host[48] fwdCurrentCacheSizeBytesPeriodic:mean 27703576.746528
attr source fwdCurrentCacheSizeBytesPeriodic
attr title "Periodic Cache Size, mean"
attr unit byte
scalar OPSHeraldNetwork.host[48] fwdCurrentCacheSizeBytesAvg:last 40022205.338037
attr source sum(fwdCurrentCacheSizeBytes)/sum(fwdCurrentCacheSizeReportedCount)
attr title "Average Cache Size, last"
attr unit byte
scalar OPSHeraldNetwork.host[48] fwdCacheBytesUpdated:last 763935
attr source sum(fwdCacheBytesUpdated)
attr title "Cache Updates, last"
attr unit byte
scalar OPSHeraldNetwork.host[48] fwdCacheBytesAdded:last 79109434
attr source sum(fwdCacheBytesAdded)
attr title "Cache Additions, last"
attr unit byte
scalar OPSHeraldNetwork.host[48] fwdCacheBytesRemoved:last -nan
attr source sum(fwdCacheBytesRemoved)
attr title "Cache Removals, last"
attr unit byte
scalar OPSHeraldNetwork.host[48] fwdAvgHopsTravelled:last 3.6649451258877
attr source sum(fwdHopsTravelled)/sum(fwdHopsTravelledCount)
attr title "Average Hops Travelled, last"
scalar OPSHeraldNetwork.host[48] fwdTotalBytesReceived:last 77647801
attr source sum(fwdTotalBytesReceived)
attr title "Total Received, last"
attr unit byte
scalar OPSHeraldNetwork.host[48] fwdDPTableDataBytesReceived:last -nan
attr source sum(fwdDPTableDataBytesReceived)
attr title "DP Table Data Received, last"
attr unit byte
scalar OPSHeraldNetwork.host[48] fwdDPTableRequestBytesReceived:last -nan
attr source sum(fwdDPTableRequestBytesReceived)
attr title "DP Table Requests Received, last"
attr unit byte
scalar OPSHeraldNetwork.host[48] fwdDataReqBytesReceived:last -nan
attr source sum(fwdDataReqBytesReceived)
attr title "Data Requests Received, last"
attr unit byte
scalar OPSHeraldNetwork.host[48] fwdSumVecBytesReceived:last -nan
attr source sum(fwdSumVecBytesReceived)
attr title "Summary Vectors Received, last"
attr unit byte
scalar OPSHeraldNetwork.host[48] fwdDataBytesReceived:last 77647801
attr source sum(fwdDataBytesReceived)
attr title "Data Received, last"
attr unit byte
scalar OPSHeraldNetwork.host[48] appTotalDataCountReceived2:last 3062
attr source sum(appTotalDataCountReceived2)
scalar OPSHeraldNetwork.host[48] appTotalDataBytesReceived2:last 76806416
attr source sum(appTotalDataBytesReceived2)
scalar OPSHeraldNetwork.host[48] appTotalDataReceivedDelay2:mean 118496.10803396
attr source appTotalDataReceivedDelay2
scalar OPSHeraldNetwork.host[48] appNonLikedDataReceivedDelay2:mean 119275.61652857
attr source appNonLikedDataReceivedDelay2
scalar OPSHeraldNetwork.host[48] appLikedDataReceivedDelay2:mean 116171.77386216
attr source appLikedDataReceivedDelay2
scalar OPSHeraldNetwork.host[48] appTotalDataAvgHopCount:last 3.6606792945787
attr source sum(appTotalDataHopsForAvgHopsComp)/sum(appTotalDataHopsCountForAvgHopsComp)
scalar OPSHeraldNetwork.host[48] appNonLikedDataAvgHopCount:last 3.6903619712167
attr source sum(appNonLikedDataHopsForAvgHopsComp)/sum(appNonLikedDataHopsCountForAvgHopsComp)
scalar OPSHeraldNetwork.host[48] appLikedDataAvgHopCount:last 3.5721716514954
attr source sum(appLikedDataHopsForAvgHopsComp)/sum(appLikedDataHopsCountForAvgHopsComp)
scalar OPSHeraldNetwork.host[48] appTotalDataDeliveryRatio:last 0.70814061054579
attr source sum(appTotalDataCountReceivedForRatioComp)/sum(appTotalDataCountMaxReceivableForRatioComp)
scalar OPSHeraldNetwork.host[48] appNonLikedDataDeliveryRatio:last 0.70946782178218
attr source sum(appNonLikedDataCountReceivedForRatioComp)/sum(appNonLikedDataCountMaxReceivableForRatioComp)
scalar OPSHeraldNetwork.host[48] appLikedDataDeliveryRatio:last 0.70421245421245
attr source sum(appLikedDataCountReceivedForRatioComp)/sum(appLikedDataCountMaxReceivableForRatioComp)
scalar OPSHeraldNetwork.host[48] appTotalDataReceivedAvgDelay:last 118496.10803396
attr source sum(appTotalDataReceivedDelay)/sum(appTotalDataCountReceivedForAvgDelayComp)
scalar OPSHeraldNetwork.host[48] appNonLikedDataReceivedAvgDelay:last 119275.61652857
attr source sum(appNonLikedDataReceivedDelay)/sum(appNonLikedDataCountReceivedForAvgDelayComp)
scalar OPSHeraldNetwork.host[48] appLikedDataReceivedAvgDelay:last 116171.77386216
attr source sum(appLikedDataReceivedDelay)/sum(appLikedDataCountReceivedForAvgDelayComp)
scalar OPSHeraldNetwork.host[48] appTotalDataCountMaxReceivable:last 4324
attr source sum(appTotalDataCountMaxReceivable)
scalar OPSHeraldNetwork.host[48] appNonLikedDataCountMaxReceivable:last 3232
attr source sum(appNonLikedDataCountMaxReceivable)
scalar OPSHeraldNetwork.host[48] appLikedDataCountMaxReceivable:last 1092
attr source sum(appLikedDataCountMaxReceivable)
scalar OPSHeraldNetwork.host[48] appTotalDataBytesMaxReceivable:last 108166735
attr source sum(appTotalDataBytesMaxReceivable)
scalar OPSHeraldNetwork.host[48] appNonLikedDataBytesMaxReceivable:last 80901254
attr source sum(appNonLikedDataBytesMaxReceivable)
scalar OPSHeraldNetwork.host[48] appLikedDataBytesMaxReceivable:last 27265481
attr source sum(appLikedDataBytesMaxReceivable)
scalar OPSHeraldNetwork.host[48] appTotalDataCountReceived:last 3098
attr source sum(appTotalDataCountReceived)
scalar OPSHeraldNetwork.host[48] appDuplicateDataCountReceived:last 36
attr source sum(appDuplicateDataCountReceived)
scalar OPSHeraldNetwork.host[48] appNonLikedDataCountReceived:last 2293
attr source sum(appNonLikedDataCountReceived)
scalar OPSHeraldNetwork.host[48] appLikedDataCountReceived:last 769
attr source sum(appLikedDataCountReceived)
scalar OPSHeraldNetwork.host[48] appTotalDataBytesReceived:last 77570351
attr source sum(appTotalDataBytesReceived)
scalar OPSHeraldNetwork.host[48] appDuplicateDataBytesReceived:last 763935
attr source sum(appDuplicateDataBytesReceived)
scalar OPSHeraldNetwork.host[48] appNonLikedDataBytesReceived:last 57548246
attr source sum(appNonLikedDataBytesReceived)
scalar OPSHeraldNetwork.host[48] appLikedDataBytesReceived:last 19258170
attr source sum(appLikedDataBytesReceived)
scalar OPSHeraldNetwork linkSimpleNeighbourSize:mean 0.24296822697333
attr source linkSimpleNeighSize
attr title "Simple Neighbour Size, mean"
scalar OPSHeraldNetwork linkContactCount:last 3075
attr source sum(linkContactCount)
attr title "Contact Count, last"
scalar OPSHeraldNetwork linkAvgContactDuration:last 1217.5307317073
attr source sum(linkContactDuration)/sum(linkContactDurationCount)
attr title "Average Contact Duration, last"
attr unit s
scalar OPSHeraldNetwork linkAvgNeighbourSize:last 0.24296822697333
attr source sum(linkNeighSize)/sum(linkNeighSizeCount)
attr title "Average Neighbour Size, last"
scalar OPSHeraldNetwork fwdTotalBytesSent:last 2974700673
attr source sum(fwdTotalBytesSent)
attr title "Total Sent, last"
attr unit byte
scalar OPSHeraldNetwork fwdDPTableDataBytesSent:last -nan
attr source sum(fwdDPTableDataBytesSent)
attr title "DP Table Data Sent, last"
attr unit byte
scalar OPSHeraldNetwork fwdDPTableRequestBytesSent:last -nan
attr source sum(fwdDPTableRequestBytesSent)
attr title "DP Table Requests Sent, last"
attr unit byte
scalar OPSHeraldNetwork fwdDataReqBytesSent:last -nan
attr source sum(fwdDataReqBytesSent)
attr title "Data Requests Sent, last"
attr unit byte
scalar OPSHeraldNetwork fwdSumVecBytesSent:last -nan
attr source sum(fwdSumVecBytesSent)
attr title "Summary Vectors Sent, last"
attr unit byte
scalar OPSHeraldNetwork fwdDataBytesSent:last 2974700673
attr source sum(fwdDataBytesSent)
attr title "Data Sent, last"
attr unit byte
scalar OPSHeraldNetwork fwdCurrentCacheSizeBytesAvg2:last 37494553.615491
attr source mean(fwdCurrentCacheSizeBytes2)
attr title "Average Cache Size, last"
attr unit byte
scalar OPSHeraldNetwork fwdCurrentCacheSizeBytesAvg2:mean 20930028.146139
attr source mean(fwdCurrentCacheSizeBytes2)
attr title "Average Cache Size, mean"
attr unit byte
scalar OPSHeraldNetwork fwdCurrentCacheSizeBytesPeriodicAvg:mean 20247748.730908
attr source periodicAverageForAllNodes(fwdCurrentCacheSizeBytesPeriodic)
attr title "Periodic Average Cache Size, mean"
attr unit byte
scalar OPSHeraldNetwork fwdCurrentCacheSizeBytesAvg:last 37494553.615491
attr source sum(fwdCurrentCacheSizeBytes)/sum(fwdCurrentCacheSizeReportedCount)
attr title "Average Cache Size, last"
attr unit byte
scalar OPSHeraldNetwork fwdCacheBytesUpdated:last 114410430
attr source sum(fwdCacheBytesUpdated)
attr title "Cache Updates, last"
attr unit byte
scalar OPSHeraldNetwork fwdCacheBytesAdded:last 2967793196
attr source sum(fwdCacheBytesAdded)
attr title "Cache Additions, last"
attr unit byte
scalar OPSHeraldNetwork fwdCacheBytesRemoved:last -nan
attr source sum(fwdCacheBytesRemoved)
attr title "Cache Removals, last"
attr unit byte
scalar OPSHeraldNetwork fwdAvgHopsTravelled:last 3.5048452878522
attr source sum(fwdHopsTravelled)/sum(fwdHopsTravelledCount)
attr title "Average Hops Travelled, last"
scalar OPSHeraldNetwork fwdTotalBytesReceived:last 2974700673
attr source sum(fwdTotalBytesReceived)
attr title "Total Received, last"
attr unit byte
scalar OPSHeraldNetwork fwdDPTableDataBytesReceived:last -nan
attr source sum(fwdDPTableDataBytesReceived)
attr title "DP Table Data Received, last"
attr unit byte
scalar OPSHeraldNetwork fwdDPTableRequestBytesReceived:last -nan
attr source sum(fwdDPTableRequestBytesReceived)
attr title "DP Table Requests Received, last"
attr unit byte
scalar OPSHeraldNetwork fwdDataReqBytesReceived:last -nan
attr source sum(fwdDataReqBytesReceived)
attr title "Data Requests Received, last"
attr unit byte
scalar OPSHeraldNetwork fwdSumVecBytesReceived:last -nan
attr source sum(fwdSumVecBytesReceived)
attr title "Summary Vectors Received, last"
attr unit byte
scalar OPSHeraldNetwork fwdDataBytesReceived:last 2974700673
attr source sum(fwdDataBytesReceived)
attr title "Data Received, last"
attr unit byte
scalar OPSHeraldNetwork appTotalDataCountReceived2:last 114076
attr source sum(appTotalDataCountReceived2)
scalar OPSHeraldNetwork appTotalDataBytesReceived2:last 2857323443
attr source sum(appTotalDataBytesReceived2)
scalar OPSHeraldNetwork appTotalDataReceivedDelay2:mean 141269.55352899
attr source appTotalDataReceivedDelay2
scalar OPSHeraldNetwork appNonLikedDataReceivedDelay2:mean 141699.19294613
attr source appNonLikedDataReceivedDelay2
scalar OPSHeraldNetwork appLikedDataReceivedDelay2:mean 139991.59256504
attr source appLikedDataReceivedDelay2
scalar OPSHeraldNetwork appTotalDataAvgHopCount:last 3.5005610294891
attr source sum(appTotalDataHopsForAvgHopsComp)/sum(appTotalDataHopsCountForAvgHopsComp)
scalar OPSHeraldNetwork appNonLikedDataAvgHopCount:last 3.5052006465669
attr source sum(appNonLikedDataHopsForAvgHopsComp)/sum(appNonLikedDataHopsCountForAvgHopsComp)
scalar OPSHeraldNetwork appLikedDataAvgHopCount:last 3.4867605044945
attr source sum(appLikedDataHopsForAvgHopsComp)/sum(appLikedDataHopsCountForAvgHopsComp)
scalar OPSHeraldNetwork appTotalDataDeliveryRatio:last 0.53829747074368
attr source sum(appTotalDataCountReceivedForRatioComp)/sum(appTotalDataCountMaxReceivableForRatioComp)
scalar OPSHeraldNetwork appNonLikedDataDeliveryRatio:last 0.53865081768625
attr source sum(appNonLikedDataCountReceivedForRatioComp)/sum(appNonLikedDataCountMaxReceivableForRatioComp)
scalar OPSHeraldNetwork appLikedDataDeliveryRatio:last 0.53724917640012
attr source sum(appLikedDataCountReceivedForRatioComp)/sum(appLikedDataCountMaxReceivableForRatioComp)
scalar OPSHeraldNetwork appTotalDataReceivedAvgDelay:last 141269.55352899
attr source sum(appTotalDataReceivedDelay)/sum(appTotalDataCountReceivedForAvgDelayComp)
scalar OPSHeraldNetwork appNonLikedDataReceivedAvgDelay:last 141699.19294613
attr source sum(appNonLikedDataReceivedDelay)/sum(appNonLikedDataCountReceivedForAvgDelayComp)
scalar OPSHeraldNetwork appLikedDataReceivedAvgDelay:last 139991.59256504
attr source sum(appLikedDataReceivedDelay)/sum(appLikedDataCountReceivedForAvgDelayComp)
scalar OPSHeraldNetwork appTotalDataCountMaxReceivable:last 211920
attr source sum(appTotalDataCountMaxReceivable)
scalar OPSHeraldNetwork appNonLikedDataCountMaxReceivable:last 158496
attr source sum(appNonLikedDataCountMaxReceivable)
scalar OPSHeraldNetwork appLikedDataCountMaxReceivable:last 53424
attr source sum(appLikedDataCountMaxReceivable)
scalar OPSHeraldNetwork appTotalDataBytesMaxReceivable:last 5302548144
attr source sum(appTotalDataBytesMaxReceivable)
scalar OPSHeraldNetwork appNonLikedDataBytesMaxReceivable:last 3962536560
attr source sum(appNonLikedDataBytesMaxReceivable)
scalar OPSHeraldNetwork appLikedDataBytesMaxReceivable:last 1340011584
attr source sum(appLikedDataBytesMaxReceivable)
scalar OPSHeraldNetwork appTotalDataCountReceived:last 118672
attr source sum(appTotalDataCountReceived)
scalar OPSHeraldNetwork appDuplicateDataCountReceived:last 4596
attr source sum(appDuplicateDataCountReceived)
scalar OPSHeraldNetwork appNonLikedDataCountReceived:last 85374
attr source sum(appNonLikedDataCountReceived)
scalar OPSHeraldNetwork appLikedDataCountReceived:last 28702
attr source sum(appLikedDataCountReceived)
scalar OPSHeraldNetwork appTotalDataBytesReceived:last 2971733873
attr source sum(appTotalDataBytesReceived)
scalar OPSHeraldNetwork appDuplicateDataBytesReceived:last 114410430
attr source sum(appDuplicateDataBytesReceived)
scalar OPSHeraldNetwork appNonLikedDataBytesReceived:last 2136546651
attr source sum(appNonLikedDataBytesReceived)
scalar OPSHeraldNetwork appLikedDataBytesReceived:last 720776792
attr source sum(appLikedDataBytesReceived)

